geometry optimzed in LAMMPS
_audit_creation_date              2020-11-30 
_audit_creation_method            'lammps2cif' 
_symmetry_space_group_name_H-M    'P1' 
_symmetry_Int_Tables_number       1 
_symmetry_cell_setting            triclinic 
loop_ 
_symmetry_equiv_pos_as_xyz 
  x,y,z 
_cell_length_a                    42.07122046 
_cell_length_b                    42.98404193203534 
_cell_length_c                    43.39940834224017 
_cell_angle_alpha                 89.59207777407815 
_cell_angle_beta                  89.04814877534618 
_cell_angle_gamma                 89.46057643996753 
loop_ 
_atom_site_label 
_atom_site_type_symbol 
_atom_site_fract_x 
_atom_site_fract_y 
_atom_site_fract_z 
_atom_site_charge 
C1          C  0.20171007  0.17079423  0.05725063     0.43600
N2          N  0.20157707  0.21658296  0.03633795     0.02500
C3          C  0.05525184  0.29067683  0.04877359    -0.05400
H4          H  0.03560859  0.20010747  0.04757264     0.07900
C5          C  0.10748960  0.18898412  0.42269835    -0.05800
Co6        Co  0.14237317  0.25217637  0.05370459     0.74200
N7          N  0.08381057  0.21574823  0.03921393    -0.25000
Co8        Co  0.08269710  0.24469576  0.99904501     0.74100
C9          C  0.07344555  0.18619923  0.41937662     0.43700
N10         N  0.17974287  0.20526966  0.45193692     0.02100
N11         N  0.08379250  0.20619949  0.46397863     0.02200
N12         N  0.09842296  0.29861547  0.07696564    -0.45800
H13         H  0.15695925  0.18218388  0.08586609     0.07900
N14         N  0.10773617  0.21874039  0.05848695     0.02500
N15         N  0.08157234  0.27074035  0.45972283     0.02200
C16         C  0.07035331  0.29049519  0.41481049     0.43800
N17         N  0.20238119  0.20863638  0.47209998    -0.24400
C18         C  0.17518178  0.31653060  0.06067653    -0.05300
N19         N  0.21651192  0.18936197  0.03664658    -0.45500
N20         N  0.05753078  0.28108411  0.44249144    -0.45700
C21         C  0.20111070  0.33310374  0.04496411     0.43600
N22         N  0.10610248  0.28462818  0.05099683     0.02400
N23         N  0.19809328  0.27795970  0.46727270    -0.24400
N24         N  0.17738243  0.21735937  0.05592620    -0.24900
N25         N  0.17672705  0.27515850  0.44577997     0.02100
H26         H  0.22835283  0.31560984  0.47958432     0.08000
H27         H  0.12073542  0.28150484  0.39717179     0.08000
N28         N  0.08129390  0.27997745  0.03320062    -0.25000
N29         N  0.11122027  0.20389080  0.44890934    -0.24600
N30         N  0.19963881  0.28557889  0.02897581     0.02500
C31         C  0.07215656  0.19624677  0.08654726     0.43900
C32         C  0.21925791  0.18191387  0.47288277    -0.05800
N33         N  0.10829054  0.27055623  0.44328897    -0.24600
H34         H  0.12511273  0.19044072  0.40436152     0.08000
N35         N  0.10150566  0.20773042  0.08629224    -0.45800
H36         H  0.23766243  0.17607053  0.48870896     0.08000
C37         C  0.19511904  0.32143351  0.43875719     0.43700
C38         C  0.17595677  0.18966146  0.07062481    -0.05300
Co39       Co  0.19959234  0.24584011  0.50335914     0.73800
N40         N  0.17858165  0.17666211  0.44067724    -0.45500
C41         C  0.06685367  0.30266698  0.07828218     0.44000
N42         N  0.21498147  0.31224603  0.02585161    -0.45500
Co43       Co  0.14440766  0.23867008  0.44759597     0.73900
C44         C  0.10394631  0.28392093  0.41616209    -0.05800
C45         C  0.05990612  0.20156660  0.05514519    -0.05400
N46         N  0.17593187  0.28755057  0.04900965    -0.24900
N47         N  0.06015866  0.19726699  0.44602627    -0.45700
H48         H  0.03103200  0.28512395  0.04309437     0.08000
C49         C  0.21167384  0.30592132  0.46404273    -0.05800
Cl50       Cl  0.14296498  0.24607427  0.99947290    -0.48800
C51         C  0.20283443  0.16044284  0.45303285     0.43700
H52         H  0.15700810  0.32560845  0.07611813     0.07900
N53         N  0.17389126  0.30069444  0.42857088    -0.45500
C54         C  0.43220015  0.20934280  0.09248203     0.43600
N55         N  0.42251429  0.22875758  0.04692251     0.02500
C56         C  0.28728700  0.31771188  0.02469430    -0.05400
H57         H  0.27566907  0.18464978  0.02245787     0.07900
C58         C  0.33475448  0.18784377  0.43063317    -0.05800
Co59       Co  0.35946914  0.26098723  0.05586108     0.74200
N60         N  0.30604328  0.22200360  0.03519250    -0.25000
Co61       Co  0.30624896  0.25344841  0.49591222     0.74100
C62         C  0.30895363  0.17016223  0.44404372     0.43700
N63         N  0.40336991  0.21422539  0.45143555     0.02100
N64         N  0.31040938  0.21526556  0.46557175     0.02200
N65         N  0.32445186  0.32262748  0.06086434    -0.45800
H66         H  0.38147568  0.21928268  0.10874889     0.07900
N67         N  0.32676426  0.22482076  0.05729308     0.02500
N68         N  0.31091106  0.28608394  0.45923195     0.02200
C69         C  0.31342827  0.32983240  0.43421305     0.43800
N70         N  0.42721328  0.21792665  0.47060430    -0.24400
C71         C  0.39676604  0.31367893  0.07898077    -0.05300
N72         N  0.44586607  0.21808562  0.06488331    -0.45500
N73         N  0.29817552  0.31452373  0.45748843    -0.45700
C74         C  0.43008837  0.32121573  0.07915306     0.43600
N75         N  0.32452974  0.29420911  0.04908631     0.02400
N76         N  0.42781343  0.28212670  0.46150068    -0.24400
N77         N  0.39536080  0.22948326  0.06268600    -0.24900
N78         N  0.40398019  0.28054308  0.44199192     0.02100
H79         H  0.47740118  0.29312284  0.45264858     0.08000
H80         H  0.35615358  0.31352406  0.40571901     0.08000
N81         N  0.30368769  0.29091748  0.02714710    -0.25000
N82         N  0.33444291  0.21467874  0.44594423    -0.24600
N83         N  0.42005278  0.29385124  0.03848928     0.02500
C84         C  0.30721540  0.17904288  0.06450775     0.43900
C85         C  0.45282153  0.20305197  0.45818816    -0.05800
N86         N  0.33476038  0.28275529  0.43945898    -0.24600
H87         H  0.35282553  0.18035654  0.41425460     0.08000
N88         N  0.32857758  0.19952354  0.07499894    -0.45800
H89         H  0.47703221  0.20613469  0.46551643     0.08000
C90         C  0.44157405  0.29872738  0.41304401     0.43700
C91         C  0.39881255  0.21663579  0.09026190    -0.05300
Co92       Co  0.42562612  0.25729674  0.00586271     0.73800
N93         N  0.41100543  0.19676552  0.42771302    -0.45500
C94         C  0.30131877  0.33871670  0.04656815     0.44000
N95         N  0.44332233  0.30765847  0.05360573    -0.45500
Co96       Co  0.36872231  0.24805559  0.44486199     0.73900
C97         C  0.33709437  0.30843694  0.42187249    -0.05800
C98         C  0.29183440  0.19439333  0.03849693    -0.05400
N99         N  0.39315870  0.29549185  0.05466999    -0.24900
N100        N  0.29482182  0.18840409  0.46581543    -0.45700
H101        H  0.27051860  0.32353790  0.00718124     0.08000
C102        C  0.45306658  0.29355626  0.44499863    -0.05800
Cl103      Cl  0.36595251  0.25478926  0.00177498    -0.48800
C104        C  0.44191717  0.18945808  0.42907669     0.43700
H105        H  0.38034216  0.31436468  0.09843181     0.07900
N106        N  0.41121169  0.29035414  0.41401672    -0.45500
C107        C  0.18118278  0.08317244  0.06016197     0.43600
N108        N  0.20581239  0.03868607  0.05868200     0.02500
C109        C  0.20211813  0.45830398  0.19110140    -0.05400
H110        H  0.20060908  0.04940635  0.21841904     0.07900
C111        C  0.32714240  0.05926228  0.14814503    -0.05800
Co112      Co  0.18880287  0.00193597  0.11422450     0.74200
N113        N  0.20766663  0.03533115  0.17091652    -0.25000
Co114      Co  0.24815517  0.00534707  0.16955694     0.74100
C115        C  0.32376776  0.06709555  0.18022904     0.43700
N116        N  0.29735329  0.04473956  0.07539614     0.02100
N117        N  0.28272312  0.04103673  0.16687128     0.02200
N118        N  0.16830286  0.45873478  0.15140540    -0.45800
H119        H  0.15056777  0.06828806  0.10121684     0.07900
N120        N  0.18736451  0.03444412  0.14795946     0.02500
N121        N  0.29192823  0.47597703  0.16410786     0.02200
C122        C  0.33558959  0.45241810  0.17683143     0.43800
N123        N  0.27520880  0.04258035  0.05448226    -0.24400
C124        C  0.17780474  0.44315101  0.07904831    -0.05300
N125        N  0.20479803  0.06687443  0.04594085    -0.45500
N126        N  0.30608756  0.46116269  0.18742371    -0.45700
C127        C  0.19266039  0.42259842  0.05672470     0.43600
N128        N  0.19490842  0.47293857  0.14406505     0.02400
N129        N  0.28614355  0.47116890  0.05252675    -0.24400
N130        N  0.18493882  0.03631102  0.08138996    -0.24900
N131        N  0.30854805  0.47332874  0.07314449     0.02100
H132        H  0.27163761  0.43368722  0.02383185     0.08000
H133        H  0.35960760  0.46397438  0.13080961     0.08000
N134        N  0.21556876  0.47352163  0.16681001    -0.25000
N135        N  0.30164821  0.04247324  0.14222675    -0.24600
N136        N  0.21612549  0.46725638  0.05532426     0.02500
C137        C  0.15996583  0.05594420  0.18375502     0.43900
C138        C  0.27349841  0.07008931  0.03974533    -0.05800
N139        N  0.31135867  0.47764574  0.13986605    -0.24600
H140        H  0.34829702  0.06009042  0.13365537     0.08000
N141        N  0.15939433  0.04642352  0.15476210    -0.45800
H142        H  0.25597358  0.07715124  0.02343654     0.08000
C143        C  0.31403079  0.42688738  0.05544882     0.43700
C144        C  0.16745379  0.06250978  0.08310930    -0.05300
Co145      Co  0.24309272  0.00526395  0.05530256     0.73800
N146        N  0.30979269  0.07306396  0.07682668    -0.45500
C147        C  0.17047047  0.44892447  0.18045692     0.44000
N148        N  0.21648721  0.43894884  0.04290665    -0.45500
Co149      Co  0.30261423  0.00991365  0.10818841     0.73900
C150        C  0.33860633  0.46303911  0.14549647    -0.05800
C151        C  0.19229008  0.04912230  0.19497933    -0.05400
N152        N  0.19432925  0.46958837  0.07725264    -0.24900
N153        N  0.29578335  0.05514464  0.19068081    -0.45700
H154        H  0.21069358  0.45873930  0.21444602     0.08000
C155        C  0.28836427  0.44304772  0.03957045    -0.05800
Cl156      Cl  0.24574480  0.00551396  0.11228256    -0.48800
C157        C  0.29585963  0.09023000  0.05461142     0.43700
H158        H  0.16001429  0.43758292  0.09639576     0.07900
N159        N  0.32541393  0.44723062  0.07594638    -0.45500
C160        C  0.16326004  0.04879583  0.33252616     0.43600
N161        N  0.20756291  0.02747877  0.34628415     0.02500
C162        C  0.22475876  0.43094803  0.46557965    -0.05400
H163        H  0.22171201  0.06588700  0.48866211     0.07900
C164        C  0.31319678  0.06459640  0.43353936    -0.05800
Co165      Co  0.19159811  0.99143114  0.40399857     0.74200
N166        N  0.21005253  0.02848635  0.45829570    -0.25000
Co167      Co  0.24810496  0.99692137  0.45940452     0.74100
C168        C  0.29631338  0.08199273  0.45757870     0.43700
N169        N  0.30362152  0.03395687  0.36765497     0.02100
N170        N  0.27948518  0.03459189  0.45702835     0.02200
N171        N  0.18963511  0.42743009  0.42759567    -0.45800
H172        H  0.13819057  0.03495944  0.37742786     0.07900
N173        N  0.18863252  0.02639792  0.43675234     0.02500
N174        N  0.29239290  0.46468660  0.44881940     0.02200
C175        C  0.31376244  0.41869228  0.44966495     0.43800
N176        N  0.28397256  0.03230605  0.34414770    -0.24400
C177        C  0.17339659  0.44116626  0.35746919    -0.05300
N178        N  0.19346132  0.04190238  0.32281364    -0.45500
N179        N  0.29296576  0.43785879  0.46384435    -0.45700
C180        C  0.17514419  0.43502417  0.32503181     0.43600
N181        N  0.20158187  0.45595100  0.42931909     0.02400
N182        N  0.29292481  0.46516588  0.33546470    -0.24400
N183        N  0.18745519  0.02423999  0.36990184    -0.24900
N184        N  0.31345971  0.46751880  0.35814786     0.02100
H185        H  0.29892612  0.44641465  0.28947475     0.08000
H186        H  0.34255747  0.42881111  0.40548212     0.08000
N187        N  0.22314122  0.45840025  0.45072989    -0.25000
N188        N  0.30082635  0.03587303  0.43462114    -0.24600
N189        N  0.21742591  0.45950495  0.33788564     0.02500
C190        C  0.18195069  0.07280634  0.45457826     0.43900
C191        C  0.29832002  0.04711081  0.32000714    -0.05800
N192        N  0.31225379  0.46486864  0.42514786    -0.24600
H193        H  0.32949629  0.07310579  0.41602124     0.08000
N194        N  0.17176235  0.05244644  0.43349799    -0.45800
H195        H  0.29087320  0.04577226  0.29632533     0.08000
C196        C  0.34004954  0.44257263  0.32399730     0.43700
C197        C  0.15964883  0.03751263  0.36360600    -0.05300
Co198      Co  0.24811699  0.99717642  0.34434177     0.73800
N199        N  0.33028504  0.04847481  0.36099059    -0.45500
C200        C  0.20319674  0.41045216  0.45017513     0.44000
N201        N  0.20302691  0.44680609  0.31400520    -0.45500
Co202      Co  0.30495469  0.00113250  0.40185461     0.73900
C203        C  0.32705027  0.43682863  0.42389004    -0.05800
C204        C  0.20647720  0.05635686  0.47174806    -0.05400
N205        N  0.19916746  0.45756134  0.36293312    -0.24900
N206        N  0.27602795  0.06175086  0.47102726    -0.45700
H207        H  0.24190887  0.42401188  0.48223831     0.08000
C208        C  0.30773032  0.44904402  0.31257277    -0.05800
Cl209      Cl  0.24821872  0.99682303  0.40178382    -0.48800
C210        C  0.32935900  0.05744113  0.33159065     0.43700
H211        H  0.15263946  0.44066533  0.37250976     0.07900
N212        N  0.34134416  0.45477338  0.35202923    -0.45500
C213        C  0.05526793  0.20324398  0.17259964     0.43600
N214        N  0.03832091  0.20134945  0.21984051     0.02500
C215        C  0.04592939  0.06067720  0.30057023    -0.05400
H216        H  0.03293309  0.03718420  0.20924045     0.07900
C217        C  0.40799112  0.11187707  0.21677295    -0.05800
Co218      Co  0.05620967  0.14109994  0.24844433     0.74200
N219        N  0.02841980  0.08623822  0.21920292    -0.25000
Co220      Co  0.49410700  0.08466106  0.25510095     0.74100
C221        C  0.40884252  0.08071503  0.20500417     0.43700
N222        N  0.44375027  0.18253473  0.22773703     0.02100
N223        N  0.45344379  0.08977411  0.22674754     0.02200
N224        N  0.08394422  0.09662761  0.29257846    -0.45800
H225        H  0.08075726  0.15635345  0.17670335     0.07900
N226        N  0.04905060  0.10902836  0.21527457     0.02500
N227        N  0.46010754  0.08797126  0.29200065     0.02200
C228        C  0.41714084  0.07587572  0.31741090     0.43800
N229        N  0.46729481  0.20229823  0.22443780    -0.24400
C230        C  0.08277525  0.16809435  0.30705918    -0.05300
N231        N  0.03820115  0.21879512  0.19438778    -0.45500
N232        N  0.44474028  0.06417968  0.30515368    -0.45700
C233        C  0.07090998  0.18905595  0.33039624     0.43600
N234        N  0.05701461  0.10522187  0.28001537     0.02400
N235        N  0.47578828  0.20003754  0.29438480    -0.24400
N236        N  0.05527474  0.17581516  0.21585090    -0.24900
N237        N  0.45213070  0.18027588  0.29643799     0.02100
H238        H  0.49744546  0.22814687  0.32974947     0.08000
H239        H  0.39629071  0.12437573  0.31164375     0.08000
N240        N  0.03402841  0.08461460  0.28371078    -0.25000
N241        N  0.43585282  0.11525343  0.23012767    -0.24600
N242        N  0.04400502  0.19575451  0.28917081     0.02500
C243        C  0.07233989  0.07071743  0.19317041     0.43900
C244        C  0.46524921  0.21516245  0.19600489    -0.05800
N245        N  0.44291450  0.11380640  0.29425323    -0.24600
H246        H  0.38810535  0.12787267  0.21899356     0.08000
N247        N  0.07462255  0.10077216  0.19960721    -0.45800
H248        H  0.48195258  0.23041247  0.18510557     0.08000
C249        C  0.45652960  0.19691499  0.34255137     0.43700
C250        C  0.06714525  0.17512158  0.18699482    -0.05300
Co251      Co  0.50572381  0.20010945  0.25484474     0.73800
N252        N  0.42624664  0.18066512  0.20270968    -0.45500
C253        C  0.07933941  0.06907907  0.30607518     0.44000
N254        N  0.04689516  0.20580364  0.31794651    -0.45500
Co255      Co  0.44369365  0.14873011  0.26217365     0.73900
C256        C  0.41651706  0.10866493  0.31070649    -0.05800
C257        C  0.04124921  0.06068265  0.20564538    -0.05400
N258        N  0.06369086  0.17254043  0.28319205    -0.29700
N259        N  0.43765170  0.06791886  0.21182356    -0.45700
H260        H  0.03432794  0.03865082  0.30467850     0.08000
C261        C  0.47935394  0.21253225  0.32259077    -0.05800
Cl262      Cl  0.49975870  0.14255869  0.25423313    -0.48800
C263        C  0.43864701  0.20017513  0.18140999     0.43700
H264        H  0.09951190  0.14915350  0.30979521     0.07900
N265        N  0.43979641  0.17797827  0.32464206    -0.45500
C266        C  0.08372103  0.43013242  0.19582485     0.43600
N267        N  0.04061608  0.41649823  0.21996081     0.02500
C268        C  0.03872620  0.28471464  0.31038244    -0.05400
H269        H  0.01376140  0.27655376  0.17442319     0.07900
C270        C  0.43300781  0.32676249  0.18277234    -0.05800
Co271      Co  0.05826333  0.35541860  0.24873406     0.74200
N272        N  0.03094517  0.30406476  0.21263476    -0.25000
Co273      Co  0.50393130  0.29438798  0.24022000     0.74100
C274        C  0.44576007  0.30202618  0.16338144     0.43700
N275        N  0.44626945  0.39097679  0.21674735     0.02100
N276        N  0.46675936  0.29882636  0.20841292     0.02200
N277        N  0.07552875  0.32189624  0.30672847    -0.45800
H278        H  0.10583079  0.38209530  0.20104904     0.07900
N279        N  0.05430988  0.32413484  0.21355084     0.02500
N280        N  0.47124220  0.29569591  0.27793093     0.02200
C281        C  0.45259230  0.29483820  0.32472370     0.43800
N282        N  0.46742668  0.41363909  0.21695471    -0.24400
C283        C  0.08968006  0.39136211  0.29662941    -0.05300
N284        N  0.05553579  0.44093802  0.20757302    -0.45500
N285        N  0.47283748  0.28047710  0.30472289    -0.45700
C286        C  0.08843870  0.42263067  0.30784330     0.43600
N287        N  0.05855986  0.32063714  0.28143628     0.02400
N288        N  0.47133312  0.40833897  0.28163155    -0.24400
N289        N  0.05867957  0.39121148  0.21771794    -0.24900
N290        N  0.45022338  0.38570513  0.28121301     0.02100
H291        H  0.46763775  0.45502610  0.29965613     0.08000
H292        H  0.42027497  0.33656263  0.31614730     0.08000
N293        N  0.03620714  0.29952131  0.28290359    -0.25000
N294        N  0.44741003  0.32304284  0.21005621    -0.24600
N295        N  0.04441300  0.41304357  0.28524658     0.02500
C296        C  0.05690591  0.30771792  0.16701376     0.43900
C297        C  0.45362720  0.43901089  0.20401597    -0.05800
N298        N  0.45042454  0.31870298  0.27933000    -0.24600
H299        H  0.41773736  0.34598168  0.17633038     0.08000
N300        N  0.07033547  0.32671646  0.18725991    -0.45800
H301        H  0.46312740  0.46229491  0.20433731     0.08000
C302        C  0.42680906  0.42051933  0.30836818     0.43700
C303        C  0.08520331  0.39730241  0.20192309    -0.05300
Co304      Co  0.00491789  0.41788798  0.25543267     0.73800
N305        N  0.41862448  0.39956908  0.20539125    -0.45500
C306        C  0.06398844  0.30052388  0.32648764     0.44000
N307        N  0.05977107  0.43521394  0.30015673    -0.45500
Co308      Co  0.44846725  0.35391825  0.24661746     0.73900
C309        C  0.43678879  0.31920771  0.30754146    -0.05800
C310        C  0.03085332  0.29221986  0.18369236    -0.05400
N311        N  0.06245504  0.38782417  0.28231522    -0.24900
N312        N  0.46606029  0.28560893  0.18091710    -0.45700
H313        H  0.02320785  0.26731593  0.31955180     0.08000
C314        C  0.45859385  0.43158558  0.29884469    -0.05800
Cl315      Cl  0.50540624  0.35230895  0.24259894    -0.48800
C316        C  0.42102725  0.42936399  0.19682318     0.43700
H317        H  0.10996231  0.37584362  0.29440054     0.07900
N318        N  0.42383817  0.39221811  0.29655612    -0.45500
C319        C  0.36899040  0.43075621  0.30824369    -0.15300
C320        C  0.39839594  0.43836655  0.31829151    -0.30500
H321        H  0.36622427  0.41420007  0.28971695     0.13700
H322        H  0.40132151  0.45648806  0.33529300     0.14300
C323        C  0.14642062  0.42970989  0.30689515    -0.15300
C324        C  0.11716720  0.43919789  0.31721534    -0.30500
H325        H  0.14889512  0.41475294  0.28694100     0.13700
H326        H  0.11462900  0.45628966  0.33540874     0.14300
C327        C  0.35884112  0.06705271  0.31502886    -0.15300
C328        C  0.38803401  0.05809732  0.32531615    -0.30500
H329        H  0.35675271  0.08391852  0.29641588     0.13700
H330        H  0.39011872  0.03965361  0.34242022     0.14300
C331        C  0.13657568  0.05949865  0.31333538    -0.15300
C332        C  0.10593442  0.05160452  0.31995807    -0.30500
H333        H  0.14197556  0.07567254  0.29467850     0.13700
H334        H  0.10040349  0.03379802  0.33701773     0.14300
C335        C  0.36280023  0.44002886  0.19466052    -0.15300
C336        C  0.39319729  0.44810516  0.18707031    -0.30500
H337        H  0.35820456  0.42212596  0.21189949     0.13700
H338        H  0.39769683  0.46760235  0.17162553     0.14300
C339        C  0.11235239  0.44864739  0.18858946    -0.15300
C340        C  0.14172575  0.43916729  0.19780046    -0.30500
H341        H  0.10982268  0.46785451  0.17239154     0.13700
H342        H  0.14437729  0.42150768  0.21560638     0.14300
C343        C  0.35097421  0.07502417  0.19952643    -0.15300
C344        C  0.38092867  0.06500386  0.19242763    -0.30500
H345        H  0.34663801  0.09102017  0.21840017     0.13700
H346        H  0.38499985  0.04698977  0.17536276     0.14300
C347        C  0.12982942  0.06298065  0.20007669    -0.15300
C348        C  0.10184656  0.05252040  0.18870590    -0.30500
H349        H  0.13006767  0.08043791  0.21804286     0.13700
H350        H  0.10156110  0.03378223  0.17206006     0.14300
C351        C  0.29844390  0.37292013  0.04487748    -0.15300
C352        C  0.31856318  0.39270177  0.05818003    -0.30500
H353        H  0.27958362  0.38201711  0.03072227     0.13700
H354        H  0.33779763  0.38377743  0.07220792     0.14300
C355        C  0.29519969  0.12459661  0.05152667    -0.15300
C356        C  0.30907284  0.14485351  0.07051601    -0.30500
H357        H  0.28126214  0.13357720  0.03272083     0.13700
H358        H  0.32302046  0.13631594  0.08968392     0.14300
C359        C  0.31572477  0.36418450  0.43023044    -0.15300
C360        C  0.31129120  0.38432819  0.45354090    -0.30500
H361        H  0.32375616  0.37286630  0.40790060     0.13700
H362        H  0.30336517  0.37555946  0.47586971     0.14300
C363        C  0.30681550  0.13597872  0.44044316    -0.15300
C364        C  0.29396488  0.11637849  0.46131756    -0.30500
H365        H  0.31921650  0.12642829  0.42048460     0.13700
H366        H  0.28128094  0.12564851  0.48115800     0.14300
C367        C  0.45851974  0.30061474  0.38238674    -0.15300
C368        C  0.44580126  0.28636659  0.35742485    -0.30500
H369        H  0.47912424  0.31544370  0.37967727     0.13700
H370        H  0.42517118  0.27170722  0.36075674     0.14300
C371        C  0.44330695  0.29868448  0.12950752    -0.15300
C372        C  0.44550549  0.32298711  0.10958237    -0.30500
H373        H  0.43720509  0.27588410  0.12089449     0.13700
H374        H  0.45169664  0.34580944  0.11806042     0.14300
C375        C  0.45987409  0.18784252  0.39935560    -0.15300
C376        C  0.44811726  0.20358886  0.37477512    -0.30500
H377        H  0.48020450  0.17226490  0.39688636     0.13700
H378        H  0.42780326  0.21904672  0.37784484     0.14300
C379        C  0.44755956  0.20732766  0.12340523    -0.15300
C380        C  0.42948393  0.19927464  0.14850515    -0.30500
H381        H  0.47207905  0.21439614  0.12593352     0.13700
H382        H  0.40585766  0.19020391  0.14495657     0.14300
C383        C  0.20533358  0.37606030  0.45260594    -0.15300
C384        C  0.19202050  0.35565359  0.43341014    -0.30500
H385        H  0.21995069  0.36725779  0.47104164     0.13700
H386        H  0.17743294  0.36404279  0.41462982     0.14300
C387        C  0.17980819  0.10708597  0.44972552    -0.15300
C388        C  0.20381847  0.12614262  0.45712699    -0.30500
H389        H  0.15903323  0.11651495  0.43829214     0.13700
H390        H  0.22466108  0.11654836  0.46819424     0.14300
C391        C  0.20681431  0.36731921  0.04280307    -0.15300
C392        C  0.18780345  0.38828157  0.05698654    -0.30500
H393        H  0.22645830  0.37539715  0.02855264     0.13700
H394        H  0.16792990  0.37995641  0.07090625     0.14300
C395        C  0.20350448  0.13636570  0.05452384    -0.15300
C396        C  0.17927358  0.11758957  0.06252868    -0.30500
H397        H  0.22472562  0.12637934  0.04389856     0.13700
H398        H  0.15794109  0.12745459  0.07311035     0.14300
C399        C  0.07221927  0.30125722  0.35945349    -0.15300
C400        C  0.05455865  0.29173671  0.38418653    -0.30500
H401        H  0.09496764  0.31209667  0.36346536     0.13700
H402        H  0.03064767  0.28297074  0.38152555     0.14300
C403        C  0.06804409  0.30695437  0.13452935    -0.15300
C404        C  0.05041371  0.30276126  0.10908125    -0.30500
H405        H  0.09299096  0.31275700  0.13156661     0.13700
H406        H  0.02514954  0.29831969  0.11099981     0.14300
C407        C  0.05957916  0.19067026  0.38814134    -0.15300
C408        C  0.07773448  0.18342437  0.36317878    -0.30500
H409        H  0.03673087  0.20209029  0.38550627     0.13700
H410        H  0.09942522  0.17006873  0.36650476     0.14300
C411        C  0.05876364  0.21199539  0.13961471    -0.15300
C412        C  0.05522165  0.19132016  0.11643001    -0.30500
H413        H  0.06789607  0.23503796  0.13447363     0.13700
H414        H  0.04483919  0.16870391  0.12107346     0.14300
C415        C  0.19922404  0.16589879  0.55797104     0.43600
N416        N  0.19829926  0.21267860  0.53910823     0.02500
C417        C  0.05059300  0.28509414  0.54917352    -0.05400
H418        H  0.03056759  0.19664544  0.54568365     0.07900
C419        C  0.10585378  0.19082152  0.92279548    -0.05800
Co420      Co  0.13753977  0.24525733  0.55568803     0.74200
N421        N  0.07963252  0.20987197  0.53798456    -0.25000
Co422      Co  0.07977393  0.24022539  0.49881561     0.74100
C423        C  0.07164061  0.18866791  0.92082879     0.43700
N424        N  0.17998855  0.20566131  0.95011202     0.02100
N425        N  0.08437970  0.20945582  0.96469647     0.02200
N426        N  0.09323032  0.29148719  0.57844534    -0.45800
H427        H  0.15285470  0.17446037  0.58511214     0.07900
N428        N  0.10347534  0.21115586  0.55752265     0.02500
N429        N  0.08367437  0.27393129  0.95934070     0.02200
C430        C  0.07095719  0.29320941  0.91480491     0.43800
N431        N  0.20331476  0.20912644  0.96951973    -0.24400
C432        C  0.16801054  0.30789323  0.57048111    -0.05300
N433        N  0.21431817  0.18596753  0.53888717    -0.45500
N434        N  0.05915326  0.28477934  0.94313223    -0.45700
C435        C  0.19181681  0.32791210  0.55656818     0.43600
N436        N  0.10115852  0.27759598  0.55263820     0.02400
N437        N  0.20088199  0.27844717  0.96211157    -0.24400
N438        N  0.17322766  0.21149417  0.55759162    -0.24900
N439        N  0.17817204  0.27584614  0.94192833     0.02100
H440        H  0.23256572  0.31604223  0.97218117     0.08000
H441        H  0.12019564  0.28226154  0.89501674     0.08000
N442        N  0.07681889  0.27404358  0.53405345    -0.25000
N443        N  0.11113549  0.20602356  0.94867055    -0.24600
N444        N  0.19373601  0.28282521  0.53476339     0.02500
C445        C  0.06653956  0.18955585  0.58476718     0.43900
C446        C  0.21967272  0.18210492  0.97077847    -0.05800
N447        N  0.10959221  0.27247559  0.94177964    -0.24600
H448        H  0.12258594  0.19141338  0.90362394     0.08000
N449        N  0.09649309  0.19942761  0.58487749    -0.45800
H450        H  0.23856760  0.17652729  0.98625883     0.08000
C451        C  0.19618876  0.32224865  0.93431593     0.43700
C452        C  0.17221125  0.18318693  0.57100843    -0.05300
Co453      Co  0.20274659  0.24753509  0.99923910     0.73800
N454        N  0.17792427  0.17672151  0.93979492    -0.45500
C455        C  0.06184675  0.29640371  0.57915137     0.44000
N456        N  0.20691191  0.31095742  0.53433434    -0.45500
Co457      Co  0.14520690  0.23991851  0.94571700     0.73900
C458        C  0.10438254  0.28545834  0.91466854    -0.05800
C459        C  0.05488112  0.19647746  0.55340284    -0.05400
N460        N  0.17025225  0.28107473  0.55506112    -0.24900
N461        N  0.05978736  0.20082322  0.94770563    -0.45700
H462        H  0.02638582  0.28046695  0.54269627     0.08000
C463        C  0.21459499  0.30630532  0.95798797    -0.05800
Cl464      Cl  0.14010190  0.24258368  0.50138594    -0.48800
C465        C  0.20223057  0.16036841  0.95200903     0.43700
H466        H  0.14962242  0.31394687  0.58710134     0.07900
N467        N  0.17430837  0.30160906  0.92524524    -0.45500
C468        C  0.43141560  0.20877532  0.59020182     0.43600
N469        N  0.42196454  0.22641932  0.54399970     0.02500
C470        C  0.28667495  0.31779382  0.52483676    -0.05400
H471        H  0.27669239  0.18322874  0.52003135     0.07900
C472        C  0.33801268  0.18553271  0.93503340    -0.05800
Co473      Co  0.35980683  0.26045969  0.55297393     0.74200
N474        N  0.30590950  0.22165989  0.53285856    -0.25000
Co475      Co  0.30669437  0.25254255  0.99773064     0.74100
C476        C  0.31264723  0.16739252  0.94868971     0.43700
N477        N  0.40509458  0.21492828  0.95505490     0.02100
N478        N  0.31201506  0.21347092  0.96845944     0.02200
N479        N  0.32548014  0.32245270  0.55944597    -0.45800
H480        H  0.38086313  0.22012770  0.60596877     0.07900
N481        N  0.32673069  0.22464143  0.55487738     0.02500
N482        N  0.31053940  0.28396895  0.96029505     0.02200
C483        C  0.31189023  0.32770403  0.93523876     0.43800
N484        N  0.42943834  0.22115969  0.97291280    -0.24400
C485        C  0.39840277  0.30998454  0.57686535    -0.05300
N486        N  0.44522348  0.21629629  0.56235448    -0.45500
N487        N  0.29666677  0.31177427  0.95797996    -0.45700
C488        C  0.43252067  0.31198373  0.58024140     0.43600
N489        N  0.32529095  0.29426019  0.54719167     0.02400
N490        N  0.42704938  0.28467365  0.96418659    -0.24400
N491        N  0.39487111  0.22811952  0.55969710    -0.24900
N492        N  0.40401315  0.28099025  0.94407461     0.02100
H493        H  0.47588765  0.29901916  0.95652764     0.08000
H494        H  0.35597937  0.31285784  0.90782784     0.08000
N495        N  0.30359666  0.29117089  0.52608787    -0.25000
N496        N  0.33638318  0.21300892  0.94921785    -0.24600
N497        N  0.42175720  0.29073248  0.53614946     0.02500
C498        C  0.30859436  0.17818727  0.56177544     0.43900
C499        C  0.45600706  0.21101601  0.95778129    -0.05800
N500        N  0.33487332  0.28130131  0.94105458    -0.24600
H501        H  0.35666038  0.17803313  0.91927917     0.08000
N502        N  0.32936432  0.19918164  0.57225254    -0.45800
H503        H  0.47990816  0.21792583  0.96323534     0.08000
C504        C  0.44095043  0.30135284  0.91595063     0.43700
C505        C  0.39812514  0.21623629  0.58763683    -0.05300
Co506      Co  0.42553126  0.25444621  0.50311434     0.73800
N507        N  0.41343148  0.19931412  0.93035649    -0.45500
C508        C  0.30160655  0.33865408  0.54641157     0.44000
N509        N  0.44550442  0.29971888  0.55395402    -0.45500
Co510      Co  0.36963892  0.24754103  0.94759482     0.73900
C511        C  0.33668432  0.30707881  0.92347129    -0.05800
C512        C  0.29261319  0.19344038  0.53594608    -0.05400
N513        N  0.39426634  0.29431696  0.55105947    -0.24900
N514        N  0.29744207  0.18602354  0.96948297    -0.45700
H515        H  0.26907153  0.32366074  0.50812148     0.08000
C516        C  0.45185531  0.29758754  0.94822406    -0.05800
Cl517      Cl  0.36564381  0.25423655  0.49917313    -0.48800
C518        C  0.44507819  0.19698740  0.92884622     0.43700
H519        H  0.38079509  0.30973782  0.59529301     0.07900
N520        N  0.41144601  0.29050971  0.91602190    -0.45500
C521        C  0.18193015  0.07737431  0.55937931     0.43600
N522        N  0.20788137  0.03369740  0.55803507     0.02500
C523        C  0.20147296  0.45284969  0.68503908    -0.05400
H524        H  0.19726331  0.04645959  0.71637608     0.07900
C525        C  0.32442270  0.05793817  0.65126590    -0.05800
Co526      Co  0.18983347  0.99504083  0.61279850     0.74200
N527        N  0.20510320  0.03022263  0.66969480    -0.25000
Co528      Co  0.24658788  0.00163105  0.67004079     0.74100
C529        C  0.32061733  0.06452767  0.68357258     0.43700
N530        N  0.29828294  0.04354617  0.57736467     0.02100
N531        N  0.28021149  0.03822849  0.66880601     0.02200
N532        N  0.16934268  0.45092857  0.64411518    -0.45800
H533        H  0.15002698  0.06059436  0.59881822     0.07900
N534        N  0.18508696  0.02749286  0.64661837     0.02500
N535        N  0.29097252  0.47284884  0.66011628     0.02200
C536        C  0.33403258  0.44907825  0.67380917     0.43800
N537        N  0.27697689  0.04074082  0.55576736    -0.24400
C538        C  0.18705725  0.43432313  0.57093723    -0.05300
N539        N  0.20664059  0.06213320  0.54593488    -0.45500
N540        N  0.30405753  0.45717083  0.68341223    -0.45700
C541        C  0.20404590  0.41717588  0.54671038     0.43600
N542        N  0.19574551  0.46583871  0.63733864     0.02400
N543        N  0.29056327  0.47081355  0.54818098    -0.24400
N544        N  0.18606173  0.02989787  0.57971980    -0.24900
N545        N  0.31174698  0.47285828  0.56996083     0.02100
H546        H  0.27866488  0.43344220  0.51815853     0.08000
H547        H  0.36012749  0.46255852  0.62930256     0.08000
N548        N  0.21532110  0.46785508  0.66086922    -0.25000
N549        N  0.29950213  0.04074175  0.64451541    -0.24600
N550        N  0.22106928  0.46459669  0.54810884     0.02500
C551        C  0.15670467  0.04955336  0.68128382     0.43900
C552        C  0.27538606  0.06786370  0.54039272    -0.05800
N553        N  0.31146809  0.47572431  0.63681696    -0.24600
H554        H  0.34582024  0.05938882  0.63718110     0.08000
N555        N  0.15652100  0.03850457  0.65277531    -0.45800
H556        H  0.25829335  0.07417624  0.52343429     0.08000
C557        C  0.31853005  0.42660389  0.55194501     0.43700
C558        C  0.16778141  0.05565918  0.58125233    -0.05300
Co559      Co  0.24642345  0.00240212  0.55545940     0.73800
N560        N  0.31040008  0.07207987  0.57852150    -0.45500
C561        C  0.17071331  0.44204881  0.67355975     0.44000
N562        N  0.22448402  0.43762023  0.53380602    -0.45500
Co563      Co  0.30306902  0.00843745  0.61036363     0.73900
C564        C  0.33852199  0.46104972  0.64306931    -0.05800
C565        C  0.18911020  0.04461320  0.69296480    -0.05400
N566        N  0.19946848  0.46311610  0.57026120    -0.24900
N567        N  0.29275964  0.05168229  0.69329214    -0.45700
H568        H  0.20901127  0.45435196  0.70868059     0.08000
C569        C  0.29407620  0.44298286  0.53483358    -0.05800
Cl570      Cl  0.24646439  0.00185522  0.61271458    -0.48800
C571        C  0.29704411  0.08863682  0.55541258     0.43700
H572        H  0.17051642  0.42565135  0.58817478     0.07900
N573        N  0.32856982  0.44676872  0.57330582    -0.45500
C574        C  0.16429563  0.04729472  0.83116309     0.43600
N575        N  0.20820739  0.02575342  0.84568069     0.02500
C576        C  0.21640734  0.43141777  0.96947358    -0.05400
H577        H  0.22023409  0.06498379  0.98814887     0.07900
C578        C  0.31323979  0.06156568  0.93627092    -0.05800
Co579      Co  0.19098222  0.99039223  0.90318005     0.74200
N580        N  0.20848185  0.02748235  0.95786094    -0.25000
Co581      Co  0.24584823  0.99504470  0.96010404     0.74100
C582        C  0.29625908  0.07911512  0.96015063     0.43700
N583        N  0.30354645  0.03204407  0.86935171     0.02100
N584        N  0.27808555  0.03215498  0.95849846     0.02200
N585        N  0.18498876  0.42723951  0.92842626    -0.45800
H586        H  0.13863467  0.03421639  0.87595901     0.07900
N587        N  0.18762866  0.02564879  0.93573280     0.02500
N588        N  0.28598286  0.46231763  0.95357473     0.02200
C589        C  0.30617095  0.41580654  0.95368484     0.43800
N590        N  0.28366939  0.03099180  0.84598413    -0.24400
C591        C  0.17220105  0.44059535  0.85696626    -0.05300
N592        N  0.19453368  0.03997470  0.82184030    -0.45500
N593        N  0.28465574  0.43475396  0.96731791    -0.45700
C594        C  0.17607538  0.43349445  0.82483019     0.43600
N595        N  0.19695700  0.45566208  0.93051368     0.02400
N596        N  0.29283991  0.46361955  0.84054590    -0.24400
N597        N  0.18781158  0.02297666  0.86903816    -0.24900
N598        N  0.31244616  0.46551741  0.86405092     0.02100
H599        H  0.30064758  0.44583294  0.79443046     0.08000
H600        H  0.33825594  0.42704886  0.91206792     0.08000
N601        N  0.21667486  0.45830596  0.95348551    -0.25000
N602        N  0.29999215  0.03321340  0.93660034    -0.24600
N603        N  0.21730398  0.45860949  0.83961419     0.02500
C604        C  0.18162165  0.07245471  0.95283493     0.43900
C605        C  0.29682878  0.04750663  0.82246050    -0.05800
N606        N  0.30745144  0.46282073  0.93118986    -0.24600
H607        H  0.33024816  0.06979961  0.91926806     0.08000
N608        N  0.17154027  0.05206099  0.93173006    -0.45800
H609        H  0.28881559  0.04731466  0.79891309     0.08000
C610        C  0.34037081  0.44121895  0.83031264     0.43700
C611        C  0.16026370  0.03647963  0.86234192    -0.05300
Co612      Co  0.24874205  0.99554912  0.84501882     0.73800
N613        N  0.32964852  0.04763043  0.86297486    -0.45500
C614        C  0.19631492  0.41056743  0.95239184     0.44000
N615        N  0.20451864  0.44523878  0.81518540    -0.45500
Co616      Co  0.30430406  0.99882451  0.90356915     0.73900
C617        C  0.32182901  0.43467118  0.92987901    -0.05800
C618        C  0.20527236  0.05564640  0.97087381    -0.05400
N619        N  0.19759536  0.45710165  0.86365896    -0.24900
N620        N  0.27502595  0.05921622  0.97275687    -0.45700
H621        H  0.23184942  0.42520608  0.98803799     0.08000
C622        C  0.30849398  0.44786699  0.81792730    -0.05800
Cl623      Cl  0.24750258  0.99505606  0.90268813    -0.48800
C624        C  0.32758880  0.05814182  0.83406631     0.43700
H625        H  0.15060853  0.44013877  0.87084372     0.07900
N626        N  0.34059738  0.45290776  0.85864208    -0.45500
C627        C  0.05077730  0.19823603  0.67089628     0.43600
N628        N  0.03530074  0.19728745  0.71869615     0.02500
C629        C  0.04662784  0.05716733  0.80005850    -0.05400
H630        H  0.03022287  0.03340137  0.70804263     0.07900
C631        C  0.40547353  0.11107369  0.71467453    -0.05800
Co632      Co  0.05458525  0.13766026  0.74809327     0.74200
N633        N  0.02675518  0.08221537  0.71930249    -0.25000
Co634      Co  0.49172195  0.08563655  0.75382925     0.74100
C635        C  0.40605537  0.07908062  0.70525776     0.43700
N636        N  0.44125680  0.18305704  0.72472934     0.02100
N637        N  0.45135623  0.08989801  0.72490226     0.02200
N638        N  0.08398368  0.09358300  0.79118994    -0.45800
H639        H  0.07739254  0.15204126  0.67556215     0.07900
N640        N  0.04739881  0.10498837  0.71516786     0.02500
N641        N  0.45705271  0.08941088  0.79008047     0.02200
C642        C  0.41421964  0.07766292  0.81573214     0.43800
N643        N  0.46419043  0.20359533  0.72269012    -0.24400
C644        C  0.07901455  0.16472035  0.80821638    -0.05300
N645        N  0.03399790  0.21395885  0.69276259    -0.45500
N646        N  0.44207675  0.06589546  0.80412241    -0.45700
C647        C  0.06618029  0.18554775  0.83140201     0.43600
N648        N  0.05652327  0.10195955  0.77955778     0.02400
N649        N  0.47132845  0.20030441  0.79302662    -0.24400
N650        N  0.05272550  0.17203213  0.71496959    -0.24900
N651        N  0.44665839  0.18173695  0.79264596     0.02100
H652        H  0.49255686  0.22476574  0.83143493     0.08000
H653        H  0.39259614  0.12565795  0.80818700     0.08000
N654        N  0.03389726  0.08104829  0.78369940    -0.25000
N655        N  0.43373095  0.11550417  0.72702109    -0.24600
N656        N  0.04123084  0.19258688  0.78877681     0.02500
C657        C  0.06945090  0.06691361  0.69151598     0.43900
C658        C  0.46193938  0.21778294  0.69488179    -0.05800
N659        N  0.43934181  0.11500361  0.79119646    -0.24600
H660        H  0.38534424  0.12676228  0.71704629     0.08000
N661        N  0.07237358  0.09680914  0.69857172    -0.45800
H662        H  0.47786129  0.23461599  0.68526211     0.08000
C663        C  0.44814863  0.19588053  0.83990418     0.43700
C664        C  0.06377759  0.17083572  0.68578451    -0.05300
Co665      Co  0.50220160  0.20100508  0.75389423     0.73800
N666        N  0.42419604  0.18155534  0.69948261    -0.45500
C667        C  0.08011459  0.06591126  0.80461499     0.44000
N668        N  0.04283708  0.20239108  0.81784881    -0.45500
Co669      Co  0.44045454  0.14952348  0.75873682     0.73900
C670        C  0.41294743  0.11008689  0.80764616    -0.05800
C671        C  0.03877073  0.05687180  0.70480520    -0.05400
N672        N  0.06122660  0.16944498  0.78331987    -0.29700
N673        N  0.43515299  0.06699502  0.71205105    -0.45700
H674        H  0.03549306  0.03492578  0.80423927     0.08000
C675        C  0.47391482  0.21071812  0.82237705    -0.05800
Cl676      Cl  0.49685766  0.14353591  0.75282955    -0.48800
C677        C  0.43625104  0.20221531  0.67920624     0.43700
H678        H  0.09547667  0.14568757  0.81164642     0.07900
N679        N  0.43231146  0.17879605  0.81972425    -0.45500
C680        C  0.08383757  0.42313106  0.69004614     0.43600
N681        N  0.04134036  0.41130661  0.71604506     0.02500
C682        C  0.03526550  0.28479268  0.81246507    -0.05400
H683        H  0.01063240  0.27084924  0.67615945     0.07900
C684        C  0.42141189  0.32916614  0.69378740    -0.05800
Co685      Co  0.05769793  0.35097301  0.74719255     0.74200
N686        N  0.02875655  0.29890324  0.71356706    -0.25000
Co687      Co  0.49953580  0.29502460  0.74109069     0.74100
C688        C  0.43460655  0.30992279  0.66954090     0.43700
N689        N  0.44230930  0.39194647  0.72423454     0.02100
N690        N  0.46096511  0.30219355  0.71124380     0.02200
N691        N  0.07414316  0.31959374  0.80597419    -0.45800
H692        H  0.10568206  0.37518441  0.69745230     0.07900
N693        N  0.05254959  0.31854098  0.71356501     0.02500
N694        N  0.46896882  0.29530084  0.78104298     0.02200
C695        C  0.45488209  0.29305362  0.82937405     0.43800
N696        N  0.46421837  0.41381980  0.72157754    -0.24400
C697        C  0.09113215  0.38868736  0.79264756    -0.05300
N698        N  0.05607747  0.43485619  0.70185997    -0.45500
N699        N  0.47195710  0.27858542  0.80681561    -0.45700
C700        C  0.09042098  0.42042435  0.80265162     0.43600
N701        N  0.05680508  0.31755478  0.78104202     0.02400
N702        N  0.47139863  0.40937219  0.78622776    -0.24400
N703        N  0.05904344  0.38570324  0.71483018    -0.24900
N704        N  0.45098140  0.38620083  0.78834017     0.02100
H705        H  0.46718142  0.45694000  0.80187158     0.08000
H706        H  0.42528683  0.33740213  0.82595758     0.08000
N707        N  0.03338058  0.29764187  0.78398718    -0.25000
N708        N  0.44010294  0.32422909  0.71799254    -0.24600
N709        N  0.04567055  0.41022582  0.78150022     0.02500
C710        C  0.05380450  0.30100729  0.66758920     0.43900
C711        C  0.45102750  0.43798155  0.70605405    -0.05800
N712        N  0.44996816  0.31934677  0.78562222    -0.24600
H713        H  0.40411092  0.34767365  0.69153884     0.08000
N714        N  0.06811365  0.32017789  0.68699218    -0.45800
H715        H  0.46156966  0.46065282  0.70289194     0.08000
C716        C  0.42808160  0.42179408  0.81507023     0.43700
C717        C  0.08528457  0.39068986  0.69818196    -0.05300
Co718      Co  0.00603516  0.41478627  0.75163986     0.73800
N719        N  0.41477575  0.39999619  0.71242548    -0.45500
C720        C  0.06170439  0.30021219  0.82711052     0.44000
N721        N  0.06159333  0.43282721  0.79521302    -0.45500
Co722      Co  0.44579031  0.35477398  0.75407367     0.73900
C723        C  0.43962551  0.31952797  0.81507867    -0.05800
C724        C  0.02800414  0.28633733  0.68499658    -0.05400
N725        N  0.06335511  0.38468999  0.77930626    -0.24900
N726        N  0.45895791  0.29363322  0.68188432    -0.45700
H727        H  0.01874386  0.26920879  0.82314566     0.08000
C728        C  0.45888241  0.43321355  0.80288768    -0.05800
Cl729      Cl  0.50236572  0.35275613  0.74508973    -0.48800
C730        C  0.41802145  0.42842923  0.70037317     0.43700
H731        H  0.11121415  0.37290141  0.79062299     0.07900
N732        N  0.42553404  0.39275326  0.80509167    -0.45500
C733        C  0.36992659  0.43028605  0.81487736    -0.15300
C734        C  0.39910997  0.43925752  0.82452830    -0.30500
H735        H  0.36779843  0.41317688  0.79674973     0.13700
H736        H  0.40139490  0.45792122  0.84104970     0.14300
C737        C  0.14866906  0.42674162  0.80521137    -0.15300
C738        C  0.11887828  0.43701676  0.81295504    -0.30500
H739        H  0.15237810  0.41027584  0.78662558     0.13700
H740        H  0.11541506  0.45537091  0.82977137     0.14300
C741        C  0.35604062  0.06908228  0.81695660    -0.15300
C742        C  0.38574874  0.05983398  0.82526434    -0.30500
H743        H  0.35272419  0.08650917  0.79903635     0.13700
H744        H  0.38892859  0.04068917  0.84141364     0.14300
C745        C  0.13763920  0.05729077  0.81156746    -0.15300
C746        C  0.10713886  0.04889102  0.81821773    -0.30500
H747        H  0.14279432  0.07351790  0.79289187     0.13700
H748        H  0.10195412  0.03102677  0.83531357     0.14300
C749        C  0.36035350  0.43714316  0.69290057    -0.15300
C750        C  0.39095279  0.44570945  0.68709770    -0.30500
H751        H  0.35488444  0.41986191  0.71052860     0.13700
H752        H  0.39628219  0.46459731  0.67116756     0.14300
C753        C  0.11235620  0.44101229  0.68089525    -0.15300
C754        C  0.14175966  0.43240926  0.69066163    -0.30500
H755        H  0.10964583  0.45912001  0.66353032     0.13700
H756        H  0.14444346  0.41598879  0.70958563     0.14300
C757        C  0.34788802  0.07193552  0.70311432    -0.15300
C758        C  0.37774549  0.06204173  0.69533800    -0.30500
H759        H  0.34402687  0.08866170  0.72144929     0.13700
H760        H  0.38135087  0.04354541  0.67869435     0.14300
C761        C  0.12678063  0.05821774  0.69701064    -0.15300
C762        C  0.09848806  0.04838706  0.68599140    -0.30500
H763        H  0.12766399  0.07573827  0.71488557     0.13700
H764        H  0.09747102  0.02957284  0.66948029     0.14300
C765        C  0.29912989  0.37296322  0.54491116    -0.15300
C766        C  0.32163527  0.39228169  0.55528511    -0.30500
H767        H  0.27859919  0.38239807  0.53319949     0.13700
H768        H  0.34204080  0.38288569  0.56733599     0.14300
C769        C  0.29615844  0.12302320  0.55113395    -0.15300
C770        C  0.31099022  0.14405463  0.56854335    -0.30500
H771        H  0.28121933  0.13140669  0.53277215     0.13700
H772        H  0.32589339  0.13619267  0.58730104     0.14300
C773        C  0.31368837  0.36219553  0.93287537    -0.15300
C774        C  0.30329948  0.38134270  0.95541461    -0.30500
H775        H  0.32601061  0.37185086  0.91287819     0.13700
H776        H  0.29095688  0.37159401  0.97533599     0.14300
C777        C  0.31119726  0.13299312  0.94564334    -0.15300
C778        C  0.29470085  0.11358672  0.96419587    -0.30500
H779        H  0.32627725  0.12314970  0.92761662     0.13700
H780        H  0.27927432  0.12308291  0.98204153     0.14300
C781        C  0.45829613  0.30507105  0.88587787    -0.15300
C782        C  0.45331683  0.28448025  0.86271274    -0.30500
H783        H  0.46949088  0.32722647  0.88086387     0.13700
H784        H  0.44300131  0.26203955  0.86826513     0.14300
C785        C  0.42878090  0.31680013  0.63656945    -0.15300
C786        C  0.44611629  0.30751120  0.61166642    -0.30500
H787        H  0.40809040  0.33155022  0.63285539     0.13700
H788        H  0.46767618  0.29382617  0.61449175     0.14300
C789        C  0.45993977  0.19897064  0.89742702    -0.15300
C790        C  0.44142391  0.19211281  0.87318453    -0.30500
H791        H  0.48332225  0.20878892  0.89407100     0.13700
H792        H  0.41839178  0.18163964  0.87778294     0.14300
C793        C  0.44648850  0.20806379  0.62124824    -0.15300
C794        C  0.42780953  0.20132949  0.64626210    -0.30500
H795        H  0.47113236  0.21468875  0.62382050     0.13700
H796        H  0.40418462  0.19231003  0.64262907     0.14300
C797        C  0.19922271  0.37612815  0.95406205    -0.15300
C798        C  0.19146306  0.35656459  0.93122740    -0.30500
H799        H  0.20996051  0.36670927  0.97469401     0.13700
H800        H  0.18014000  0.36562606  0.91068562     0.14300
C801        C  0.17969440  0.10678527  0.94787591    -0.15300
C802        C  0.20308096  0.12603583  0.95649887    -0.30500
H803        H  0.15957792  0.11611492  0.93533402     0.13700
H804        H  0.22336731  0.11653290  0.96856737     0.14300
C805        C  0.19181245  0.36229507  0.56080899    -0.15300
C806        C  0.20635546  0.38282491  0.54190051    -0.30500
H807        H  0.17748848  0.37106042  0.57993738     0.13700
H808        H  0.22099670  0.37429079  0.52297328     0.14300
C809        C  0.20235418  0.13156472  0.55431919    -0.15300
C810        C  0.17882946  0.11172742  0.56205365    -0.30500
H811        H  0.22405965  0.12255783  0.54372781     0.13700
H812        H  0.15708665  0.12065792  0.57263730     0.14300
C813        C  0.07058211  0.30276129  0.85964760    -0.15300
C814        C  0.05375909  0.29399375  0.88506182    -0.30500
H815        H  0.09343797  0.31379873  0.86262880     0.13700
H816        H  0.02983731  0.28494640  0.88347440     0.14300
C817        C  0.06387356  0.29949071  0.63507367    -0.15300
C818        C  0.04542123  0.29690136  0.60989747    -0.30500
H819        H  0.08913486  0.30372700  0.63196270     0.13700
H820        H  0.01984494  0.29421630  0.61204274     0.14300
C821        C  0.05650372  0.19168033  0.88978633    -0.15300
C822        C  0.07284640  0.18102148  0.86472470    -0.30500
H823        H  0.03464797  0.20493365  0.88715823     0.13700
H824        H  0.09368833  0.16653597  0.86865117     0.14300
C825        C  0.05388219  0.20662637  0.63770505    -0.15300
C826        C  0.04906100  0.18601303  0.61465115    -0.30500
H827        H  0.06441715  0.22902122  0.63229774     0.13700
H828        H  0.03759950  0.16397699  0.61960967     0.14300
C829        C  0.19352843  0.67325001  0.06414991     0.43600
N830        N  0.19536835  0.71641529  0.03831004     0.02500
C831        C  0.05066628  0.79165850  0.04692034    -0.05400
H832        H  0.03115797  0.70180069  0.04646375     0.07900
C833        C  0.10622880  0.68908085  0.42382031    -0.05800
Co834      Co  0.13748939  0.75493383  0.05341334     0.74200
N835        N  0.07925786  0.71806038  0.03846548    -0.25000
Co836      Co  0.07920154  0.74593059  0.99742657     0.74100
C837        C  0.07228629  0.68606890  0.41985321     0.43700
N838        N  0.17807551  0.70494175  0.45577219     0.02100
N839        N  0.08156091  0.70604828  0.46479611     0.02200
N840        N  0.09380128  0.80193635  0.07417735    -0.45800
H841        H  0.15182812  0.69033992  0.09360098     0.07900
N842        N  0.10276214  0.72175550  0.05807582     0.02500
N843        N  0.07971963  0.77055343  0.45976767     0.02200
C844        C  0.06961175  0.78910808  0.41415337     0.43800
N845        N  0.19931149  0.70783273  0.47738300    -0.24400
C846        C  0.17024076  0.81839543  0.05976066    -0.05300
N847        N  0.20810309  0.68804281  0.04026926    -0.45500
N848        N  0.05615965  0.78049494  0.44176018    -0.45700
C849        C  0.19669004  0.83435724  0.04456003     0.43600
N850        N  0.10168259  0.78761377  0.04845963     0.02400
N851        N  0.19568913  0.77735422  0.47258320    -0.24400
N852        N  0.17216462  0.72044214  0.05864770    -0.24900
N853        N  0.17533778  0.77470333  0.45012234     0.02100
H854        H  0.22417431  0.81554817  0.48718586     0.08000
H855        H  0.12060075  0.77988430  0.39805085     0.08000
N856        N  0.07690646  0.78191428  0.03094330    -0.25000
N857        N  0.10938010  0.70377551  0.45028585    -0.24600
N858        N  0.19566198  0.78640710  0.02969464     0.02500
C859        C  0.06714729  0.69939622  0.08611289     0.43900
C860        C  0.21658983  0.68137570  0.47827572    -0.05800
N861        N  0.10693350  0.77012508  0.44412057    -0.24600
H862        H  0.12426114  0.69052809  0.40586651     0.08000
N863        N  0.09629521  0.71119560  0.08594771    -0.45800
H864        H  0.23398531  0.67533628  0.49514110     0.08000
C865        C  0.19303667  0.82146025  0.44486408     0.43700
C866        C  0.17036828  0.69508037  0.07679987    -0.05300
Co867      Co  0.19537255  0.74484777  0.50859062     0.73800
N868        N  0.17854778  0.67702068  0.44284838    -0.45500
C869        C  0.06214694  0.80452022  0.07618748     0.44000
N870        N  0.21127265  0.81296492  0.02644191    -0.45500
Co871      Co  0.14293334  0.73832278  0.45026557     0.73900
C872        C  0.10323786  0.78269604  0.41648437    -0.05800
C873        C  0.05527757  0.70388085  0.05438081    -0.05400
N874        N  0.17126684  0.78927212  0.04877971    -0.24900
N875        N  0.05840914  0.69698292  0.44630810    -0.45700
H876        H  0.02664688  0.78488814  0.04176045     0.08000
C877        C  0.20875080  0.80570194  0.47054926    -0.05800
Cl878      Cl  0.13949446  0.74696106  0.99936555    -0.48800
C879        C  0.20240574  0.66080209  0.45590486     0.43700
H880        H  0.15164195  0.82782065  0.07449160     0.07900
N881        N  0.17274544  0.80056019  0.43337871    -0.45500
C882        C  0.43160797  0.71225426  0.09408592     0.43600
N883        N  0.42102580  0.72917777  0.04796150     0.02500
C884        C  0.28452143  0.81716453  0.02663506    -0.05400
H885        H  0.27478574  0.68325124  0.02286289     0.07900
C886        C  0.34077418  0.69017764  0.43059060    -0.05800
Co887      Co  0.35741262  0.76068242  0.05729729     0.74200
N888        N  0.30454431  0.72104104  0.03613545    -0.25000
Co889      Co  0.30754019  0.75331654  0.49674908     0.74100
C890        C  0.31551735  0.67082739  0.44257811     0.43700
N891        N  0.40714690  0.71902261  0.45397815     0.02100
N892        N  0.31394415  0.71550937  0.46551517     0.02200
N893        N  0.32205132  0.82265919  0.06228726    -0.45800
H894        H  0.38014101  0.72039741  0.10964072     0.07900
N895        N  0.32520710  0.72397699  0.05825915     0.02500
N896        N  0.31166655  0.78669612  0.46099143     0.02200
C897        C  0.31315068  0.83147331  0.43788281     0.43800
N898        N  0.43088092  0.72377913  0.47299869    -0.24400
C899        C  0.39412279  0.81066337  0.08319640    -0.05300
N900        N  0.44480201  0.72036954  0.06622674    -0.45500
N901        N  0.29769625  0.81457242  0.45981409    -0.45700
C902        C  0.42808087  0.81476654  0.08628762     0.43600
N903        N  0.32213277  0.79401161  0.05083270     0.02400
N904        N  0.42821520  0.78792031  0.46731004    -0.24400
N905        N  0.39377672  0.72925435  0.06359580    -0.24900
N906        N  0.40520738  0.78565972  0.44696489     0.02100
H907        H  0.47702152  0.80275746  0.46080771     0.08000
H908        H  0.35748784  0.81808996  0.41026984     0.08000
N909        N  0.30113669  0.79041334  0.02907401    -0.25000
N910        N  0.33860228  0.71656432  0.44661592    -0.24600
N911        N  0.41826113  0.79363008  0.04198082     0.02500
C912        C  0.30707800  0.67745496  0.06450070     0.43900
C913        C  0.45754447  0.71213640  0.45919236    -0.05800
N914        N  0.33631374  0.78507335  0.44201076    -0.24600
H915        H  0.35965544  0.68404922  0.41451416     0.08000
N916        N  0.32779730  0.69835258  0.07539295    -0.45800
H917        H  0.48152089  0.71710455  0.46616964     0.08000
C918        C  0.44199706  0.80831764  0.42055434     0.43700
C919        C  0.39773889  0.71741740  0.09147229    -0.05300
Co920      Co  0.42391849  0.75851465  0.00818117     0.73800
N921        N  0.41581941  0.70338480  0.42940479    -0.45500
C922        C  0.29869869  0.83866091  0.04807506     0.44000
N923        N  0.44157717  0.80373116  0.05971930    -0.45500
Co924      Co  0.37141154  0.75154424  0.44754051     0.73900
C925        C  0.33815364  0.81154567  0.42554263    -0.05800
C926        C  0.29096846  0.69302872  0.03895804    -0.05400
N927        N  0.39070960  0.79548516  0.05698981    -0.24900
N928        N  0.29967772  0.68785765  0.46443166    -0.45700
H929        H  0.26761841  0.82277927  0.00920968     0.08000
C930        C  0.45300883  0.80189402  0.45236076    -0.05800
Cl931      Cl  0.36423929  0.75524516  0.00351736    -0.48800
C932        C  0.44724223  0.69878317  0.42973075     0.43700
H933        H  0.37654106  0.80926079  0.10157824     0.07900
N934        N  0.41253564  0.79748396  0.41981895    -0.45500
C935        C  0.19334292  0.58431494  0.04936256     0.43600
N936        N  0.21278737  0.53746141  0.05124402     0.02500
C937        C  0.20041079  0.95483197  0.19512097    -0.05400
H938        H  0.20385043  0.55186375  0.21293395     0.07900
C939        C  0.33087552  0.56123342  0.14216045    -0.05800
Co940      Co  0.19385691  0.50511795  0.10903978     0.74200
N941        N  0.21216880  0.53867591  0.16539663    -0.25000
Co942      Co  0.25196421  0.50756030  0.16548785     0.74100
C943        C  0.32724432  0.57114148  0.17359050     0.43700
N944        N  0.30367072  0.54321668  0.07108394     0.02100
N945        N  0.28728420  0.54260278  0.16220944     0.02200
N946        N  0.16680665  0.95326270  0.15537214    -0.45800
H947        H  0.16427766  0.57645399  0.09378687     0.07900
N948        N  0.19253615  0.53851349  0.14184519     0.02500
N949        N  0.28841168  0.97485663  0.16662758     0.02200
C950        C  0.33264176  0.95274046  0.17930132     0.43800
N951        N  0.28226892  0.54078466  0.04947587    -0.24400
C952        C  0.17287989  0.94183117  0.08164887    -0.05300
N953        N  0.21326391  0.56393415  0.03553565    -0.45500
N954        N  0.30292676  0.96037173  0.18980333    -0.45700
C955        C  0.18705305  0.92322906  0.05742334     0.43600
N956        N  0.19258455  0.96871623  0.14796316     0.02400
N957        N  0.28045130  0.97252517  0.05542301    -0.24400
N958        N  0.19314171  0.53901712  0.07500085    -0.24900
N959        N  0.30345757  0.97468680  0.07545329     0.02100
H960        H  0.26530269  0.93443416  0.02769996     0.08000
H961        H  0.35658234  0.96564065  0.13352230     0.08000
N962        N  0.21315162  0.97029447  0.17068683    -0.25000
N963        N  0.30621972  0.54299457  0.13759988    -0.24600
N964        N  0.21045614  0.96780957  0.05870037     0.02500
C965        C  0.16439747  0.55976999  0.17733392     0.43900
C966        C  0.28130419  0.56815009  0.03434635    -0.05800
N967        N  0.30773226  0.97741078  0.14236439    -0.24600
H968        H  0.35173637  0.56227012  0.12728850     0.08000
N969        N  0.16449549  0.55077506  0.14811592    -0.45800
H970        H  0.26432093  0.57535029  0.01763783     0.08000
C971        C  0.30871640  0.92803303  0.05769502     0.43700
C972        C  0.17937141  0.56745812  0.07550836    -0.05300
Co973      Co  0.24941347  0.50386158  0.05066750     0.73800
N974        N  0.31587525  0.57161300  0.07272567    -0.45500
C975        C  0.16933153  0.94399321  0.18456204     0.44000
N976        N  0.21042463  0.94059817  0.04416311    -0.45500
Co977      Co  0.30751657  0.50929220  0.10489260     0.73900
C978        C  0.33549758  0.96366610  0.14798067    -0.05800
C979        C  0.19629352  0.55229257  0.18923926    -0.05400
N980        N  0.18936187  0.96824763  0.08130714    -0.24900
N981        N  0.29974901  0.55881535  0.18501540    -0.45700
H982        H  0.20891117  0.95599583  0.21846264     0.08000
C983        C  0.28244172  0.94417432  0.04263946    -0.05800
Cl984      Cl  0.25069180  0.50627499  0.10778099    -0.48800
C985        C  0.30281921  0.58858700  0.04991588     0.43700
H986        H  0.15538977  0.93510561  0.09889209     0.07900
N987        N  0.32049942  0.94859884  0.07778228    -0.45500
C988        C  0.16700316  0.54669051  0.32439811     0.43600
N989        N  0.21152140  0.52529353  0.33739520     0.02500
C990        C  0.21858202  0.93154047  0.47376149    -0.05400
H991        H  0.22966229  0.56549611  0.47885459     0.07900
C992        C  0.31850675  0.56452859  0.42360376    -0.05800
Co993      Co  0.19689922  0.49056032  0.39616438     0.74200
N994        N  0.21658891  0.52801499  0.44946432    -0.25000
Co995      Co  0.25449458  0.49627342  0.45041164     0.74100
C996        C  0.30251982  0.58123442  0.44885892     0.43700
N997        N  0.30739569  0.53280293  0.35729283     0.02100
N998        N  0.28597588  0.53368113  0.44756599     0.02200
N999        N  0.18504092  0.92744914  0.43451710    -0.45800
H1000       H  0.14318218  0.53407115  0.37025685     0.07900
N1001       N  0.19464084  0.52606027  0.42840499     0.02500
N1002       N  0.28610396  0.96511877  0.45787431     0.02200
C1003       C  0.30790197  0.91923986  0.45776785     0.43800
N1004       N  0.28722443  0.53060268  0.33426021    -0.24400
C1005       C  0.16794508  0.94349172  0.36329967    -0.05300
N1006       N  0.19686494  0.53931874  0.31399278    -0.45500
N1007       N  0.28636713  0.93772133  0.47191031    -0.45700
C1008       C  0.17080846  0.93739911  0.33088016     0.43600
N1009       N  0.19618222  0.95625234  0.43680667     0.02400
N1010       N  0.28855715  0.96694777  0.34472410    -0.24400
N1011       N  0.19209851  0.52272814  0.36158959    -0.24900
N1012       N  0.30860144  0.96869272  0.36788968     0.02100
H1013       H  0.29566318  0.94999152  0.29820474     0.08000
H1014       H  0.33815974  0.93110327  0.41508990     0.08000
N1015       N  0.21693760  0.95898527  0.45893424    -0.25000
N1016       N  0.30647063  0.53551185  0.42449127    -0.24600
N1017       N  0.21287477  0.96156423  0.34535674     0.02500
C1018       C  0.18857970  0.57236554  0.44660362     0.43900
C1019       C  0.30027741  0.54581660  0.30977388    -0.05800
N1020       N  0.30663646  0.96598390  0.43478777    -0.24600
H1021       H  0.33411813  0.57362865  0.40577605     0.08000
N1022       N  0.17775816  0.55221275  0.42557732    -0.45800
H1023       H  0.29209342  0.54434416  0.28633795     0.08000
C1024       C  0.33597969  0.94502779  0.33342931     0.43700
C1025       C  0.16424993  0.53613455  0.35579679    -0.05300
Co1026     Co  0.25215944  0.49516085  0.33542623     0.73800
N1027       N  0.33332191  0.54819059  0.34994227    -0.45500
C1028       C  0.19819881  0.91063020  0.45749299     0.44000
N1029       N  0.19918934  0.94908043  0.32090572    -0.45500
Co1030     Co  0.31006889  0.50022523  0.39184664     0.73900
C1031       C  0.32196446  0.93832703  0.43325164    -0.05800
C1032       C  0.21365585  0.55593708  0.46278489    -0.05400
N1033       N  0.19389768  0.95930651  0.36989971    -0.24900
N1034       N  0.28307935  0.56036458  0.46241114    -0.45700
H1035       H  0.23542393  0.92483798  0.49076254     0.08000
C1036       C  0.30388182  0.95164708  0.32160840    -0.05800
Cl1037     Cl  0.25345813  0.49567225  0.39285805    -0.48800
C1038       C  0.33115593  0.55712524  0.32057038     0.43700
H1039       H  0.14673303  0.94288298  0.37771561     0.07900
N1040       N  0.33663600  0.95627360  0.36187660    -0.45500
C1041       C  0.05334250  0.70464698  0.17258447     0.43600
N1042       N  0.03724335  0.70141369  0.21999467     0.02500
C1043       C  0.04890138  0.55829747  0.29575097    -0.05400
H1044       H  0.03719362  0.53792320  0.20282052     0.07900
C1045       C  0.41163710  0.61812960  0.20922835    -0.05800
Co1046     Co  0.05694810  0.64100092  0.24723433     0.74200
N1047       N  0.03148308  0.58623699  0.21566199    -0.25000
Co1048     Co  0.49702935  0.58801380  0.24681954     0.74100
C1049       C  0.41267155  0.58773770  0.19570377     0.43700
N1050       N  0.44611064  0.68777671  0.22714559     0.02100
N1051       N  0.45722944  0.59565955  0.21795670     0.02200
N1052       N  0.08576568  0.59572894  0.28974641    -0.45800
H1053       H  0.08035993  0.65851891  0.17544294     0.07900
N1054       N  0.05160741  0.60961907  0.21310304     0.02500
N1055       N  0.46196898  0.58829781  0.28278897     0.02200
C1056       C  0.41822880  0.57420940  0.30552741     0.43800
N1057       N  0.46976471  0.70749639  0.22500659    -0.24400
C1058       C  0.08172653  0.66722409  0.30716701    -0.05300
N1059       N  0.03619958  0.71924975  0.19488312    -0.45500
N1060       N  0.44615185  0.56349243  0.29318212    -0.45700
C1061       C  0.06937802  0.68790592  0.33058347     0.43600
N1062       N  0.05852540  0.60422627  0.27770708     0.02400
N1063       N  0.47661722  0.70013049  0.29497181    -0.24400
N1064       N  0.05501981  0.67652192  0.21540791    -0.24900
N1065       N  0.45275455  0.68058936  0.29414607     0.02100
H1066       H  0.49668884  0.72475785  0.33381787     0.08000
H1067       H  0.39765447  0.62312233  0.30365371     0.08000
N1068       N  0.03620008  0.58275257  0.28022929    -0.25000
N1069       N  0.43942871  0.62074530  0.22293030    -0.24600
N1070       N  0.04262599  0.69437987  0.28918148     0.02500
C1071       C  0.07603946  0.57314290  0.18904791     0.43900
C1072       C  0.46711042  0.72267518  0.19771695    -0.05800
N1073       N  0.44479481  0.61393200  0.28691620    -0.24600
H1074       H  0.39152199  0.63362136  0.21274826     0.08000
N1075       N  0.07757417  0.60276314  0.19735210    -0.45800
H1076       H  0.48350816  0.73903725  0.18794779     0.08000
C1077       C  0.45380011  0.69350284  0.34168620     0.43700
C1078       C  0.06644344  0.67671028  0.18634101    -0.05300
Co1079     Co  0.50768598  0.70300729  0.25597637     0.73800
N1080       N  0.42769394  0.68824745  0.20285315    -0.45500
C1081       C  0.08205272  0.56731660  0.30164089     0.44000
N1082       N  0.04514577  0.70429242  0.31805847    -0.45500
Co1083     Co  0.44602589  0.65139573  0.25788545     0.73900
C1084       C  0.41787477  0.60745464  0.30197018    -0.05800
C1085       C  0.04506182  0.56174083  0.20077967    -0.05400
N1086       N  0.06286618  0.67165184  0.28308185    -0.29700
N1087       N  0.44151493  0.57471030  0.20182007    -0.45700
H1088       H  0.03813921  0.53566327  0.29837552     0.08000
C1089       C  0.47869325  0.71009723  0.32450213    -0.05800
Cl1090     Cl  0.50230373  0.64577027  0.25103572    -0.48800
C1091       C  0.43963610  0.70912223  0.18289000     0.43700
H1092       H  0.09886571  0.64860582  0.30980582     0.07900
N1093       N  0.43865574  0.67621516  0.32114950    -0.45500
C1094       C  0.08270942  0.92818276  0.19751379     0.43600
N1095       N  0.03917388  0.91378428  0.22004788     0.02500
C1096       C  0.03678464  0.78219663  0.30974494    -0.05400
H1097       H  0.01404459  0.77416950  0.17244298     0.07900
C1098       C  0.42012739  0.83427613  0.19938791    -0.05800
Co1099     Co  0.05690232  0.85260609  0.24810791     0.74200
N1100       N  0.03087338  0.80092068  0.21146099    -0.25000
Co1101     Co  0.49801990  0.80147021  0.24730923     0.74100
C1102       C  0.43326854  0.81451418  0.17552568     0.43700
N1103       N  0.44110835  0.89779505  0.22975112     0.02100
N1104       N  0.46027435  0.80832063  0.21686823     0.02200
N1105       N  0.07405966  0.81899093  0.30588924    -0.45800
H1106       H  0.10466558  0.87997397  0.20145847     0.07900
N1107       N  0.05381892  0.82144288  0.21266373     0.02500
N1108       N  0.46700303  0.80076048  0.28642850     0.02200
C1109       C  0.45428082  0.79840354  0.33491508     0.43800
N1110       N  0.46279776  0.91992714  0.22764721    -0.24400
C1111       C  0.08786313  0.88961735  0.29608753    -0.05300
N1112       N  0.05434405  0.93863754  0.20898750    -0.45500
N1113       N  0.47080316  0.78401684  0.31204084    -0.45700
C1114       C  0.08543879  0.92059305  0.30807614     0.43600
N1115       N  0.05694074  0.81786846  0.28069474     0.02400
N1116       N  0.46807636  0.91568854  0.29237036    -0.24400
N1117       N  0.05723830  0.88855498  0.21733235    -0.24900
N1118       N  0.44803997  0.89216767  0.29417283     0.02100
H1119       H  0.46251944  0.96349753  0.30685228     0.08000
H1120       H  0.42499034  0.84314274  0.33239597     0.08000
N1121       N  0.03446148  0.79687648  0.28217466    -0.25000
N1122       N  0.43915902  0.83015497  0.22343626    -0.24600
N1123       N  0.04164791  0.90973262  0.28528018     0.02500
C1124       C  0.05598899  0.80655383  0.16552164     0.43900
C1125       C  0.44987745  0.94381670  0.21148080    -0.05800
N1126       N  0.44813786  0.82487977  0.29135856    -0.24600
H1127       H  0.40222583  0.85224056  0.19709298     0.08000
N1128       N  0.06929582  0.82520209  0.18617957    -0.45800
H1129       H  0.46022287  0.96660115  0.20850792     0.08000
C1130       C  0.42369506  0.92791129  0.31935464     0.43700
C1131       C  0.08398077  0.89510706  0.20219340    -0.05300
Co1132     Co  0.00274383  0.91422311  0.25445861     0.73800
N1133       N  0.41399861  0.90536782  0.21687272    -0.45500
C1134       C  0.06245618  0.79766799  0.32564315     0.44000
N1135       N  0.05620611  0.93214773  0.30067705    -0.45500
Co1136     Co  0.44398886  0.86065460  0.25977759     0.73900
C1137       C  0.43863584  0.82503153  0.32107029    -0.05800
C1138       C  0.03076340  0.78991070  0.18216286    -0.05400
N1139       N  0.06058027  0.88516721  0.28193293    -0.24900
N1140       N  0.45815521  0.79886362  0.18777414    -0.45700
H1141       H  0.02112288  0.76484670  0.31889059     0.08000
C1142       C  0.45462487  0.93964053  0.30809968    -0.05800
Cl1143     Cl  0.50046511  0.85900949  0.25240772    -0.48800
C1144       C  0.41726843  0.93375883  0.20471283     0.43700
H1145       H  0.10868064  0.87482479  0.29370723     0.07900
N1146       N  0.42193979  0.89860304  0.30995979    -0.45500
C1147       C  0.36558462  0.93528886  0.31753980    -0.15300
C1148       C  0.39432304  0.94513236  0.32747900    -0.30500
H1149       H  0.36403670  0.91787869  0.29962514     0.13700
H1150       H  0.39590416  0.96404066  0.34382909     0.14300
C1151       C  0.14328688  0.92979562  0.31157454    -0.15300
C1152       C  0.11294494  0.93767603  0.32012446    -0.30500
H1153       H  0.14775196  0.91509963  0.29170925     0.13700
H1154       H  0.10844886  0.95446277  0.33828941     0.14300
C1155       C  0.35996945  0.56655580  0.30307292    -0.15300
C1156       C  0.38914249  0.55595054  0.31166519    -0.30500
H1157       H  0.35770522  0.58520001  0.28621489     0.13700
H1158       H  0.39119473  0.53596226  0.32697693     0.14300
C1159       C  0.13970157  0.55735225  0.30594926    -0.15300
C1160       C  0.10932778  0.54942135  0.31370013    -0.30500
H1161       H  0.14434103  0.57381183  0.28734786     0.13700
H1162       H  0.10455418  0.53128458  0.33062977     0.14300
C1163       C  0.35972762  0.94209568  0.19800320    -0.15300
C1164       C  0.39009031  0.95066245  0.19119437    -0.30500
H1165       H  0.35487590  0.92560789  0.21652761     0.13700
H1166       H  0.39499796  0.96885686  0.17435601     0.14300
C1167       C  0.11164360  0.94675582  0.19280684    -0.15300
C1168       C  0.14042238  0.93597953  0.20230848    -0.30500
H1169       H  0.11010714  0.96649721  0.17711961     0.13700
H1170       H  0.14216887  0.91763119  0.21953857     0.14300
C1171       C  0.35455880  0.58095634  0.19184320    -0.15300
C1172       C  0.38460833  0.57175394  0.18397138    -0.30500
H1173       H  0.35016767  0.59725073  0.21044707     0.13700
H1174       H  0.38870566  0.55337335  0.16731308     0.14300
C1175       C  0.13402386  0.56648525  0.19352010    -0.15300
C1176       C  0.10594140  0.55609892  0.18229026    -0.30500
H1177       H  0.13428745  0.58308452  0.21226292     0.13700
H1178       H  0.10557449  0.53807398  0.16489603     0.14300
C1179       C  0.29502396  0.87312007  0.04644878    -0.15300
C1180       C  0.31426766  0.89369101  0.06000798    -0.30500
H1181       H  0.27601691  0.88186659  0.03227870     0.13700
H1182       H  0.33370783  0.88525623  0.07404033     0.14300
C1183       C  0.30028471  0.62299772  0.04801603    -0.15300
C1184       C  0.31102034  0.64316748  0.06898190    -0.30500
H1185       H  0.28724596  0.63199857  0.02860236     0.13700
H1186       H  0.32410118  0.63460913  0.08872031     0.14300
C1187       C  0.31452240  0.86599982  0.43612905    -0.15300
C1188       C  0.30558253  0.88472887  0.45951392    -0.30500
H1189       H  0.32551517  0.87606553  0.41561852     0.13700
H1190       H  0.29467236  0.87462322  0.48003484     0.14300
C1191       C  0.31472488  0.63664676  0.43676336    -0.15300
C1192       C  0.29994256  0.61545149  0.45465931    -0.30500
H1193       H  0.32931644  0.62844112  0.41756489     0.13700
H1194       H  0.28519215  0.62329677  0.47378938     0.14300
C1195       C  0.45943320  0.81193942  0.39068900    -0.15300
C1196       C  0.45521167  0.79042285  0.36828311    -0.30500
H1197       H  0.46806504  0.83493013  0.38458230     0.13700
H1198       H  0.44725180  0.76725962  0.37471149     0.14300
C1199       C  0.42492984  0.81874911  0.14275119    -0.15300
C1200       C  0.44280556  0.81200703  0.11740524    -0.30500
H1201       H  0.40212044  0.83022582  0.13972586     0.13700
H1202       H  0.46656689  0.80237750  0.11967431     0.14300
C1203       C  0.46380441  0.69889712  0.39918094    -0.15300
C1204       C  0.44674198  0.68955763  0.37484590    -0.30500
H1205       H  0.48652165  0.71020225  0.39611209     0.13700
H1206       H  0.42438468  0.67772609  0.37939445     0.14300
C1207       C  0.44740566  0.71336209  0.12472226    -0.15300
C1208       C  0.42938446  0.70910244  0.15059212    -0.30500
H1209       H  0.47256112  0.71846112  0.12616166     0.13700
H1210       H  0.40505805  0.70152434  0.14848418     0.14300
C1211       C  0.20141069  0.87625085  0.45970246    -0.15300
C1212       C  0.18931874  0.85569755  0.43992041    -0.30500
H1213       H  0.21567904  0.86761205  0.47847746     0.13700
H1214       H  0.17513194  0.86395973  0.42080520     0.14300
C1215       C  0.18443001  0.60676724  0.44437295    -0.15300
C1216       C  0.20593015  0.62645445  0.45606609    -0.30500
H1217       H  0.16394052  0.61597065  0.43231616     0.13700
H1218       H  0.22647798  0.61721054  0.46788633     0.14300
C1219       C  0.20240018  0.86852874  0.04254769    -0.15300
C1220       C  0.18200527  0.88916345  0.05535429    -0.30500
H1221       H  0.22329181  0.87676181  0.03028519     0.13700
H1222       H  0.16104633  0.88057730  0.06743263     0.14300
C1223       C  0.19073318  0.63897472  0.06806618    -0.15300
C1224       C  0.19722461  0.61852769  0.04537658    -0.30500
H1225       H  0.18071186  0.63061463  0.08975815     0.13700
H1226       H  0.20720561  0.62689928  0.02366750     0.14300
C1227       C  0.07202892  0.79726629  0.35822010    -0.15300
C1228       C  0.05400855  0.78999848  0.38342569    -0.30500
H1229       H  0.09577706  0.80613852  0.36144901     0.13700
H1230       H  0.02926720  0.78352062  0.38125998     0.14300
C1231       C  0.06515429  0.80841500  0.13244866    -0.15300
C1232       C  0.04682615  0.80315713  0.10758509    -0.30500
H1233       H  0.08927363  0.81655659  0.12858870     0.13700
H1234       H  0.02217534  0.79629628  0.11041196     0.14300
C1235       C  0.05857641  0.68982182  0.38840802    -0.15300
C1236       C  0.07708399  0.68345394  0.36340552    -0.30500
H1237       H  0.03501074  0.69964114  0.38565516     0.13700
H1238       H  0.09964438  0.67160880  0.36668629     0.14300
C1239       C  0.05570337  0.71408593  0.13972824    -0.15300
C1240       C  0.05041501  0.69431146  0.11609268    -0.30500
H1241       H  0.06591574  0.73675789  0.13492358     0.13700
H1242       H  0.03897329  0.67212545  0.12033743     0.14300
C1243       C  0.19049299  0.66683609  0.56767192     0.43600
N1244       N  0.19142380  0.71139528  0.54425580     0.02500
C1245       C  0.04621120  0.78839011  0.54637368    -0.05400
H1246       H  0.02469507  0.70002186  0.54679344     0.07900
C1247       C  0.10441078  0.69013806  0.92322091    -0.05800
Co1248     Co  0.13183772  0.74642864  0.55842148     0.74200
N1249       N  0.07430086  0.71141987  0.53915162    -0.25000
Co1250     Co  0.07627273  0.74076146  0.49914555     0.74100
C1251       C  0.07028381  0.68793914  0.92063772     0.43700
N1252       N  0.17784313  0.70559141  0.95120173     0.02100
N1253       N  0.08196421  0.70989676  0.96411969     0.02200
N1254       N  0.08768368  0.79509513  0.57715579    -0.45800
H1255       H  0.14611690  0.68000558  0.59543619     0.07900
N1256       N  0.09783337  0.71249557  0.55903130     0.02500
N1257       N  0.08130882  0.77404566  0.95657608     0.02200
C1258       C  0.07032252  0.79044310  0.91029679     0.43800
N1259       N  0.20021978  0.70878682  0.97164509    -0.24400
C1260       C  0.16320447  0.80740613  0.57541253    -0.05300
N1261       N  0.20565117  0.68367488  0.54550033    -0.45500
N1262       N  0.05739841  0.78339979  0.93863597    -0.45700
C1263       C  0.18855773  0.82651749  0.56321025     0.43600
N1264       N  0.09614972  0.77919007  0.55268237     0.02400
N1265       N  0.19893050  0.77776559  0.96309715    -0.24400
N1266       N  0.16688467  0.71290565  0.56338223    -0.24900
N1267       N  0.17655927  0.77547856  0.94251377     0.02100
H1268       H  0.23087941  0.81491422  0.97366731     0.08000
H1269       H  0.12068062  0.77935831  0.89357045     0.08000
N1270       N  0.07258069  0.77545923  0.53324332    -0.25000
N1271       N  0.10907138  0.70612057  0.94872711    -0.24600
N1272       N  0.18933973  0.78215232  0.54001436     0.02500
C1273       C  0.06011192  0.69242025  0.58635763     0.43900
C1274       C  0.21686615  0.68199301  0.97305928    -0.05800
N1275       N  0.10800656  0.77234797  0.94017527    -0.24600
H1276       H  0.12152427  0.69015158  0.90434074     0.08000
N1277       N  0.09033305  0.70122033  0.58637098    -0.45800
H1278       H  0.23520827  0.67646005  0.98923581     0.08000
C1279       C  0.19510231  0.82177011  0.93541376     0.43700
C1280       C  0.16534335  0.68655852  0.58001454    -0.05300
Co1281     Co  0.19902155  0.74729132  0.00078382     0.73800
N1282       N  0.17688068  0.67707667  0.93968697    -0.45500
C1283       C  0.05658377  0.80142937  0.57590198     0.44000
N1284       N  0.20393094  0.80957342  0.54108463    -0.45500
Co1285     Co  0.14329897  0.73983255  0.94581359     0.73900
C1286       C  0.10384265  0.78365018  0.91217035    -0.05800
C1287       C  0.04893198  0.69922051  0.55471370    -0.05400
N1288       N  0.16489310  0.78115114  0.55918326    -0.24900
N1289       N  0.05780022  0.70077199  0.94689016    -0.45700
H1290       H  0.02217652  0.78463259  0.53884504     0.08000
C1291       C  0.21308615  0.80541948  0.95915294    -0.05800
Cl1292     Cl  0.13607608  0.74255323  0.50410648    -0.48800
C1293       C  0.20091443  0.66080795  0.95245246     0.43700
H1294       H  0.14456334  0.81362241  0.59172077     0.07900
N1295       N  0.17317720  0.80136688  0.92592084    -0.45500
C1296       C  0.43252635  0.71100813  0.59288657     0.43600
N1297       N  0.42305578  0.72856687  0.54670031     0.02500
C1298       C  0.28652631  0.81739790  0.52648125    -0.05400
H1299       H  0.27852172  0.68287401  0.51807827     0.07900
C1300       C  0.33846743  0.68729615  0.93478643    -0.05800
Co1301     Co  0.35949264  0.76007971  0.55558221     0.74200
N1302       N  0.30697601  0.72100701  0.53281032    -0.25000
Co1303     Co  0.30502327  0.75213696  0.99913167     0.74100
C1304       C  0.31365690  0.66803750  0.94772736     0.43700
N1305       N  0.40464900  0.71740479  0.95602788     0.02100
N1306       N  0.31163347  0.71344281  0.96910599     0.02200
N1307       N  0.32435939  0.82183584  0.56207341    -0.45800
H1308       H  0.38083186  0.71863200  0.60734778     0.07900
N1309       N  0.32716818  0.72366063  0.55538682     0.02500
N1310       N  0.30865196  0.78423956  0.96227681     0.02200
C1311       C  0.30938694  0.82836713  0.93790624     0.43800
N1312       N  0.42867330  0.72340312  0.97430918    -0.24400
C1313       C  0.39581953  0.80921137  0.58317994    -0.05300
N1314       N  0.44641110  0.71979686  0.56551233    -0.45500
N1315       N  0.29429152  0.81182915  0.96029207    -0.45700
C1316       C  0.42960197  0.81317048  0.58707497     0.43600
N1317       N  0.32451738  0.79365536  0.54962148     0.02400
N1318       N  0.42481983  0.78739860  0.96807829    -0.24400
N1319       N  0.39545130  0.72821189  0.56167667    -0.24900
N1320       N  0.40213226  0.78392449  0.94760355     0.02100
H1321       H  0.47288140  0.80446476  0.96215482     0.08000
H1322       H  0.35375575  0.81474254  0.91044363     0.08000
N1323       N  0.30345162  0.79069956  0.52783362    -0.25000
N1324       N  0.33606191  0.71419528  0.94988712    -0.24600
N1325       N  0.42080708  0.79297052  0.54202564     0.02500
C1326       C  0.30939402  0.67694349  0.56053371     0.43900
C1327       C  0.45550221  0.71337862  0.95952562    -0.05800
N1328       N  0.33319660  0.78239213  0.94322127    -0.24600
H1329       H  0.35730599  0.68084695  0.91879175     0.08000
N1330       N  0.32961326  0.69781239  0.57217886    -0.45800
H1331       H  0.47933941  0.71994762  0.96559337     0.08000
C1332       C  0.43819839  0.80787585  0.92146544     0.43700
C1333       C  0.39875932  0.71587064  0.58943270    -0.05300
Co1334     Co  0.42654561  0.75847186  0.50732173     0.73800
N1335       N  0.41338740  0.70223590  0.93117869    -0.45500
C1336       C  0.30086191  0.83823339  0.54858741     0.44000
N1337       N  0.44374957  0.80243742  0.56061952    -0.45500
Co1338     Co  0.36859433  0.74943118  0.94933482     0.73900
C1339       C  0.33458797  0.80840166  0.92599675    -0.05800
C1340       C  0.29388242  0.69269385  0.53476816    -0.05400
N1341       N  0.39295030  0.79467159  0.55653308    -0.24900
N1342       N  0.29781124  0.68554936  0.96917396    -0.45700
H1343       H  0.26926503  0.82340938  0.50946917     0.08000
C1344       C  0.44908789  0.80237146  0.95339339    -0.05800
Cl1345     Cl  0.36679805  0.75594160  0.50179635    -0.48800
C1346       C  0.44502985  0.69963535  0.93028921     0.43700
H1347       H  0.37792851  0.80747913  0.60126395     0.07900
N1348       N  0.40929492  0.79565923  0.92037765    -0.45500
C1349       C  0.19313990  0.57978365  0.54615481     0.43600
N1350       N  0.21484173  0.53397932  0.54672276     0.02500
C1351       C  0.19816818  0.95259161  0.69569300    -0.05400
H1352       H  0.20243505  0.55240023  0.70510455     0.07900
C1353       C  0.32853680  0.55961051  0.64200981    -0.05800
Co1354     Co  0.19463661  0.49821724  0.60261002     0.74200
N1355       N  0.20985518  0.53336808  0.65942672    -0.25000
Co1356     Co  0.25037574  0.50328155  0.66093029     0.74100
C1357       C  0.32348194  0.56834375  0.67366105     0.43700
N1358       N  0.30466685  0.54276205  0.56903206     0.02100
N1359       N  0.28467958  0.53939177  0.65974662     0.02200
N1360       N  0.16636447  0.94818728  0.65488842    -0.45800
H1361       H  0.16154264  0.56808068  0.58789893     0.07900
N1362       N  0.19017768  0.53109669  0.63604111     0.02500
N1363       N  0.28788015  0.97249532  0.66822330     0.02200
C1364       C  0.33252865  0.95190667  0.68177522     0.43800
N1365       N  0.28407654  0.54013054  0.54674750    -0.24400
C1366       C  0.18354870  0.93179374  0.58055884    -0.05300
N1367       N  0.21515232  0.56136620  0.53271049    -0.45500
N1368       N  0.30235306  0.95850748  0.69171748    -0.45700
C1369       C  0.20038307  0.91574914  0.55556356     0.43600
N1370       N  0.19292553  0.96238669  0.64719946     0.02400
N1371       N  0.28503643  0.97130935  0.55607165    -0.24400
N1372       N  0.19358851  0.53308209  0.56920512    -0.24900
N1373       N  0.30661941  0.97332435  0.57749003     0.02100
H1374       H  0.27308031  0.93401029  0.52594934     0.08000
H1375       H  0.35699186  0.96559391  0.63653888     0.08000
N1376       N  0.21244377  0.96559494  0.67063220    -0.25000
N1377       N  0.30451863  0.54104268  0.63585596    -0.24600
N1378       N  0.21580089  0.96369456  0.55737907     0.02500
C1379       C  0.16265055  0.55641945  0.66917299     0.43900
C1380       C  0.28331249  0.56736143  0.53143854    -0.05800
N1381       N  0.30771297  0.97578205  0.64442619    -0.24600
H1382       H  0.34997743  0.56148753  0.62804327     0.08000
N1383       N  0.16222839  0.54410464  0.64115955    -0.45800
H1384       H  0.26686388  0.57413357  0.51408161     0.08000
C1385       C  0.31366867  0.92720063  0.55879055     0.43700
C1386       C  0.17824321  0.56073823  0.57022372    -0.05300
Co1387     Co  0.25267194  0.50228338  0.54611746     0.73800
N1388       N  0.31667288  0.57123242  0.57088982    -0.45500
C1389       C  0.16729051  0.94155240  0.68491705     0.44000
N1390       N  0.21966348  0.93711709  0.54246656    -0.45500
Co1391     Co  0.30820199  0.50816534  0.60238287     0.73900
C1392       C  0.33568651  0.96283944  0.65054125    -0.05800
C1393       C  0.19443520  0.54974299  0.68172634    -0.05400
N1394       N  0.19498518  0.96092603  0.58006796    -0.24900
N1395       N  0.29588379  0.55502358  0.68358450    -0.45700
H1396       H  0.20529324  0.95622211  0.71921621     0.08000
C1397       C  0.28866835  0.94358803  0.54238680    -0.05800
Cl1398     Cl  0.25143226  0.50284278  0.60355873    -0.48800
C1399       C  0.30426075  0.58796224  0.54751131     0.43700
H1400       H  0.16782453  0.92232930  0.59810898     0.07900
N1401       N  0.32381093  0.94731931  0.58023640    -0.45500
C1402       C  0.16861786  0.54674649  0.82381386     0.43600
N1403       N  0.21211671  0.52466953  0.83886669     0.02500
C1404       C  0.21411717  0.93010235  0.97392497    -0.05400
H1405       H  0.22408235  0.56548858  0.98077258     0.07900
C1406       C  0.31614368  0.56178824  0.93041681    -0.05800
Co1407     Co  0.19429115  0.49018006  0.89692937     0.74200
N1408       N  0.21192559  0.52779135  0.95107191    -0.25000
Co1409     Co  0.24895915  0.49517622  0.95393663     0.74100
C1410       C  0.29910090  0.57886492  0.95474494     0.43700
N1411       N  0.30707815  0.53081202  0.86341564     0.02100
N1412       N  0.28138278  0.53180425  0.95238465     0.02200
N1413       N  0.18246085  0.92689829  0.93309494    -0.45800
H1414       H  0.14242679  0.53442369  0.86853118     0.07900
N1415       N  0.19103816  0.52589606  0.92899001     0.02500
N1416       N  0.28314459  0.96241143  0.95898309     0.02200
C1417       C  0.30341522  0.91592829  0.95816625     0.43800
N1418       N  0.28765250  0.52927972  0.83971798    -0.24400
C1419       C  0.16989137  0.94023767  0.86295827    -0.05300
N1420       N  0.19884205  0.53892466  0.81480074    -0.45500
N1421       N  0.28203921  0.93463310  0.97229274    -0.45700
C1422       C  0.17414057  0.93292346  0.83088794     0.43600
N1423       N  0.19396482  0.95541788  0.93609904     0.02400
N1424       N  0.28928136  0.96549884  0.84583722    -0.24400
N1425       N  0.19151308  0.52235815  0.86213215    -0.24900
N1426       N  0.30873872  0.96673448  0.86947516     0.02100
H1427       H  0.29766688  0.95013567  0.79896697     0.08000
H1428       H  0.33508243  0.92786410  0.91648328     0.08000
N1429       N  0.21383793  0.95764599  0.95900891    -0.25000
N1430       N  0.30323540  0.53315810  0.93049267    -0.24600
N1431       N  0.21425419  0.95968909  0.84551037     0.02500
C1432       C  0.18478206  0.57251216  0.94634061     0.43900
C1433       C  0.30116318  0.54555232  0.81621620    -0.05800
N1434       N  0.30437461  0.96325279  0.93640077    -0.24600
H1435       H  0.33305599  0.57047211  0.91353085     0.08000
N1436       N  0.17473916  0.55223323  0.92508502    -0.45800
H1437       H  0.29354928  0.54512036  0.79254497     0.08000
C1438       C  0.33719412  0.94446061  0.83488008     0.43700
C1439       C  0.16420131  0.53617965  0.85506244    -0.05300
Co1440     Co  0.25242060  0.49405460  0.83887228     0.73800
N1441       N  0.33309338  0.54658502  0.85738014    -0.45500
C1442       C  0.19424094  0.90954457  0.95631610     0.44000
N1443       N  0.20211063  0.94562145  0.82117166    -0.45500
Co1444     Co  0.30774962  0.49810439  0.89790281     0.73900
C1445       C  0.31881670  0.93517931  0.93455288    -0.05800
C1446       C  0.20877418  0.55594320  0.96397367    -0.05400
N1447       N  0.19458684  0.95774446  0.86951815    -0.24900
N1448       N  0.27823637  0.55855401  0.96701798    -0.45700
H1449       H  0.22981886  0.92319974  0.99196583     0.08000
C1450       C  0.30529027  0.95105009  0.82261413    -0.05800
Cl1451     Cl  0.25095324  0.49444138  0.89631501    -0.48800
C1452       C  0.33154115  0.55663071  0.82830581     0.43700
H1453       H  0.14842502  0.93887324  0.87695202     0.07900
N1454       N  0.33706834  0.95480502  0.86369491    -0.45500
C1455       C  0.05055094  0.70566924  0.67167903     0.43600
N1456       N  0.03677734  0.70287113  0.71985753     0.02500
C1457       C  0.05128265  0.55757291  0.79146592    -0.05400
H1458       H  0.03577041  0.54139673  0.69506943     0.07900
C1459       C  0.40652392  0.61652518  0.71196826    -0.05800
Co1460     Co  0.05809839  0.64203974  0.74600390     0.74200
N1461       N  0.03214132  0.58840356  0.71236379    -0.25000
Co1462     Co  0.49299965  0.58817295  0.74884236     0.74100
C1463       C  0.40779361  0.58581316  0.69903168     0.43700
N1464       N  0.44217402  0.68733581  0.72697894     0.02100
N1465       N  0.45254132  0.59484165  0.72056646     0.02200
N1466       N  0.08787875  0.59536193  0.78644733    -0.45800
H1467       H  0.07920255  0.66063195  0.67419661     0.07900
N1468       N  0.05277545  0.61146034  0.71098273     0.02500
N1469       N  0.45928200  0.58981918  0.78578692     0.02200
C1470       C  0.41811478  0.57662841  0.81301404     0.43800
N1471       N  0.46565778  0.70729669  0.72481413    -0.24400
C1472       C  0.08092972  0.66592283  0.80793959    -0.05300
N1473       N  0.03359211  0.71991332  0.69434277    -0.45500
N1474       N  0.44513889  0.56553651  0.79921840    -0.45700
C1475       C  0.06779051  0.68584913  0.83172751     0.43600
N1476       N  0.06039494  0.60417319  0.77504517     0.02400
N1477       N  0.47323736  0.70129283  0.79474734    -0.24400
N1478       N  0.05532668  0.67852879  0.71501198    -0.24900
N1479       N  0.44910100  0.68207434  0.79432666     0.02100
H1480       H  0.49366648  0.72650949  0.83302006     0.08000
H1481       H  0.39617449  0.62499150  0.80943567     0.08000
N1482       N  0.03820141  0.58249369  0.77693943    -0.25000
N1483       N  0.43457969  0.61989005  0.72513878    -0.24600
N1484       N  0.04312162  0.69434605  0.78928745     0.02500
C1485       C  0.07525659  0.57658179  0.68316787     0.43900
C1486       C  0.46317240  0.72206771  0.69730465    -0.05800
N1487       N  0.44181271  0.61533566  0.78925763    -0.24600
H1488       H  0.38627938  0.63191415  0.71522878     0.08000
N1489       N  0.07811628  0.60524766  0.69401334    -0.45800
H1490       H  0.47942567  0.73855127  0.68750810     0.08000
C1491       C  0.45019943  0.69620941  0.84155843     0.43700
C1492       C  0.06555489  0.67871835  0.68553081    -0.05300
Co1493     Co  0.50394265  0.70324023  0.75555198     0.73800
N1494       N  0.42437602  0.68696783  0.70222204    -0.45500
C1495       C  0.08449491  0.56650833  0.79735232     0.44000
N1496       N  0.04452570  0.70305409  0.81864196    -0.45500
Co1497     Co  0.44203532  0.65179559  0.75891922     0.73900
C1498       C  0.41645571  0.60950936  0.80688426    -0.05800
C1499       C  0.04440755  0.56501459  0.69498105    -0.05400
N1500       N  0.06337293  0.67162584  0.78307702    -0.29700
N1501       N  0.43692313  0.57337226  0.70500670    -0.45700
H1502       H  0.04064218  0.53483290  0.79354364     0.08000
C1503       C  0.47547425  0.71187659  0.82405124    -0.05800
Cl1504     Cl  0.49833702  0.64593285  0.75160447    -0.48800
C1505       C  0.43647561  0.70764493  0.68205748     0.43700
H1506       H  0.09746198  0.64682196  0.81072573     0.07900
N1507       N  0.43484234  0.67865401  0.82139187    -0.45500
C1508       C  0.07950041  0.93066168  0.69754591     0.43600
N1509       N  0.03716365  0.91662512  0.72270759     0.02500
C1510       C  0.03628742  0.78092907  0.80609118    -0.05400
H1511       H  0.00545714  0.77946739  0.67072610     0.07900
C1512       C  0.41998417  0.83581175  0.70002238    -0.05800
Co1513     Co  0.05471619  0.85377505  0.74677718     0.74200
N1514       N  0.02489354  0.80455604  0.70962768    -0.25000
Co1515     Co  0.49683774  0.80187940  0.74862115     0.74100
C1516       C  0.43263809  0.81517623  0.67656049     0.43700
N1517       N  0.44162132  0.89889858  0.73101822     0.02100
N1518       N  0.45900073  0.80882705  0.71835321     0.02200
N1519       N  0.07397268  0.81728725  0.80199863    -0.45800
H1520       H  0.09983697  0.88168841  0.69791777     0.07900
N1521       N  0.04834604  0.82452789  0.71045790     0.02500
N1522       N  0.46604158  0.80176823  0.78776645     0.02200
C1523       C  0.45280263  0.79952670  0.83606173     0.43800
N1524       N  0.46336586  0.92097651  0.72880904    -0.24400
C1525       C  0.09002352  0.88787453  0.79408181    -0.05300
N1526       N  0.05251956  0.94146349  0.71173981    -0.45500
N1527       N  0.46928420  0.78487619  0.81334094    -0.45700
C1528       C  0.08892836  0.91828250  0.80755804     0.43600
N1529       N  0.05577399  0.81737711  0.77753563     0.02400
N1530       N  0.46929162  0.91661006  0.79340504    -0.24400
N1531       N  0.05404717  0.89102718  0.71759704    -0.24900
N1532       N  0.44911548  0.89319338  0.79532328     0.02100
H1533       H  0.46409978  0.96432503  0.80841452     0.08000
H1534       H  0.42413958  0.84460098  0.83340646     0.08000
N1535       N  0.03292738  0.79673668  0.77924010    -0.25000
N1536       N  0.43856310  0.83139228  0.72443851    -0.24600
N1537       N  0.04352349  0.90925543  0.78732244     0.02500
C1538       C  0.04780234  0.81127638  0.66303404     0.43900
C1539       C  0.45017041  0.94510065  0.71315867    -0.05800
N1540       N  0.44757462  0.82616214  0.79256685    -0.24600
H1541       H  0.40271647  0.85428442  0.69723300     0.08000
N1542       N  0.06255059  0.82894839  0.68350199    -0.45800
H1543       H  0.46047577  0.96791898  0.71031397     0.08000
C1544       C  0.42528967  0.92875014  0.82126370     0.43700
C1545       C  0.07976993  0.89739443  0.70075707    -0.05300
Co1546     Co  0.00293824  0.91616995  0.75941207     0.73800
N1547       N  0.41432853  0.90666266  0.71870769    -0.45500
C1548       C  0.06278065  0.79556121  0.82150827     0.44000
N1549       N  0.05948559  0.93061142  0.80273965    -0.45500
Co1550     Co  0.44411571  0.86181383  0.76090541     0.73900
C1551       C  0.43776546  0.82642372  0.82217478    -0.05800
C1552       C  0.02310890  0.79442321  0.68014072    -0.05400
N1553       N  0.06167003  0.88456132  0.78162894    -0.24900
N1554       N  0.45676467  0.79894683  0.68942495    -0.45700
H1555       H  0.02079719  0.76342253  0.81528522     0.08000
C1556       C  0.45611949  0.94049160  0.80953793    -0.05800
Cl1557     Cl  0.50036531  0.85970806  0.75321976    -0.48800
C1558       C  0.41738124  0.93516330  0.70688615     0.43700
H1559       H  0.11033124  0.87284451  0.78969646     0.07900
N1560       N  0.42336763  0.89956243  0.81163205    -0.45500
C1561       C  0.36723405  0.93591197  0.81905006    -0.15300
C1562       C  0.39576977  0.94572040  0.82961133    -0.30500
H1563       H  0.36615038  0.91922857  0.80042536     0.13700
H1564       H  0.39698134  0.96393181  0.84675334     0.14300
C1565       C  0.14703527  0.92530628  0.81126535    -0.15300
C1566       C  0.11696780  0.93440724  0.81928185    -0.30500
H1567       H  0.15140097  0.90974363  0.79204900     0.13700
H1568       H  0.11287966  0.95202734  0.83673697     0.14300
C1569       C  0.36032521  0.56735419  0.81175341    -0.15300
C1570       C  0.38968900  0.55831262  0.82116378    -0.30500
H1571       H  0.35757273  0.58478093  0.79373419     0.13700
H1572       H  0.39243834  0.53930743  0.83755796     0.14300
C1573       C  0.14221538  0.55740634  0.80407648    -0.15300
C1574       C  0.11163558  0.54877507  0.81007477    -0.30500
H1575       H  0.14750907  0.57448315  0.78620054     0.13700
H1576       H  0.10643068  0.53011440  0.82631023     0.14300
C1577       C  0.35972973  0.94257077  0.70088668    -0.15300
C1578       C  0.38985390  0.95192054  0.69397820    -0.30500
H1579       H  0.35532383  0.92595228  0.71939897     0.13700
H1580       H  0.39431481  0.97021502  0.67713536     0.14300
C1581       C  0.10931396  0.94800789  0.69234748    -0.15300
C1582       C  0.13747504  0.93628994  0.70255655    -0.30500
H1583       H  0.10898903  0.96665335  0.67533403     0.13700
H1584       H  0.13789901  0.91881671  0.72075006     0.14300
C1585       C  0.34984796  0.57821887  0.69326749    -0.15300
C1586       C  0.38028806  0.56945831  0.68646826    -0.30500
H1587       H  0.34457862  0.59451144  0.71168482     0.13700
H1588       H  0.38519867  0.55120659  0.66984841     0.14300
C1589       C  0.13313219  0.56753996  0.68428596    -0.15300
C1590       C  0.10410355  0.55908832  0.67384741    -0.30500
H1591       H  0.13515938  0.58425694  0.70278157     0.13700
H1592       H  0.10188105  0.54078512  0.65692301     0.14300
C1593       C  0.29739297  0.87273293  0.54822033    -0.15300
C1594       C  0.31819596  0.89268455  0.56077013    -0.30500
H1595       H  0.27718011  0.88189938  0.53581697     0.13700
H1596       H  0.33829638  0.88360223  0.57349975     0.14300
C1597       C  0.30239107  0.62233205  0.54468788    -0.15300
C1598       C  0.31281434  0.64271538  0.56555221    -0.30500
H1599       H  0.29007523  0.63113814  0.52474235     0.13700
H1600       H  0.32513226  0.63432740  0.58581680     0.14300
C1601       C  0.31092752  0.86286709  0.93623956    -0.15300
C1602       C  0.30040463  0.88147517  0.95912698    -0.30500
H1603       H  0.32336316  0.87296586  0.91653025     0.13700
H1604       H  0.28792465  0.87127606  0.97871913     0.14300
C1605       C  0.31323961  0.63373044  0.94297718    -0.15300
C1606       C  0.29693979  0.61311541  0.96022641    -0.30500
H1607       H  0.32882995  0.62498995  0.92476585     0.13700
H1608       H  0.28096297  0.62147869  0.97820248     0.14300
C1609       C  0.45596505  0.81245232  0.89199764    -0.15300
C1610       C  0.45276246  0.79114890  0.86927531    -0.30500
H1611       H  0.46445030  0.83564409  0.88650404     0.13700
H1612       H  0.44512043  0.76775370  0.87518340     0.14300
C1613       C  0.42515126  0.81896954  0.64343817    -0.15300
C1614       C  0.44331332  0.81066806  0.61869200    -0.30500
H1615       H  0.40289893  0.83119784  0.63947067     0.13700
H1616       H  0.46638269  0.79993525  0.62192623     0.14300
C1617       C  0.46065223  0.70083377  0.89918909    -0.15300
C1618       C  0.44264394  0.69345711  0.87474816    -0.30500
H1619       H  0.48424199  0.71030296  0.89611746     0.13700
H1620       H  0.41946241  0.68320539  0.87911309     0.14300
C1621       C  0.44698082  0.71239349  0.62415179    -0.15300
C1622       C  0.42829125  0.70592792  0.64915632    -0.30500
H1623       H  0.47130620  0.72003438  0.62676512     0.13700
H1624       H  0.40504418  0.69600358  0.64568387     0.14300
C1625       C  0.19785497  0.87511461  0.95664868    -0.15300
C1626       C  0.19010759  0.85615711  0.93329375    -0.30500
H1627       H  0.20905970  0.86520212  0.97679145     0.13700
H1628       H  0.17841667  0.86571062  0.91316327     0.14300
C1629       C  0.18146000  0.60689001  0.94305082    -0.15300
C1630       C  0.20334360  0.62642561  0.95424697    -0.30500
H1631       H  0.16145186  0.61615188  0.93030039     0.13700
H1632       H  0.22355798  0.61706787  0.96650970     0.14300
C1633       C  0.18956651  0.86058904  0.56870296    -0.15300
C1634       C  0.20343037  0.88162222  0.54993313    -0.30500
H1635       H  0.17568881  0.86882254  0.58835986     0.13700
H1636       H  0.21750329  0.87374392  0.53034479     0.14300
C1637       C  0.18899740  0.63241271  0.56914985    -0.15300
C1638       C  0.19586258  0.61417149  0.54483553    -0.30500
H1639       H  0.17934274  0.62208849  0.59015910     0.13700
H1640       H  0.20550799  0.62453178  0.52385702     0.14300
C1641       C  0.07239778  0.79558310  0.85403584    -0.15300
C1642       C  0.05429908  0.79018199  0.87971996    -0.30500
H1643       H  0.09641198  0.80395437  0.85665488     0.13700
H1644       H  0.02930416  0.78448434  0.87809689     0.14300
C1645       C  0.05583173  0.81382661  0.62999748    -0.15300
C1646       C  0.03917386  0.80354419  0.60583478    -0.30500
H1647       H  0.07855653  0.82497070  0.62541075     0.13700
H1648       H  0.01603208  0.79303822  0.60888899     0.14300
C1649       C  0.05636024  0.69136097  0.88928655    -0.15300
C1650       C  0.07273601  0.67948433  0.86492587    -0.30500
H1651       H  0.03623861  0.70676283  0.88570949     0.13700
H1652       H  0.09231541  0.66353020  0.86946216     0.14300
C1653       C  0.04936801  0.71301927  0.63819458    -0.15300
C1654       C  0.04286211  0.69131158  0.61652898    -0.30500
H1655       H  0.05956282  0.73509311  0.63099527     0.13700
H1656       H  0.03220702  0.66939812  0.62347078     0.14300
C1657       C  0.69663448  0.17344800  0.05547139     0.43600
N1658       N  0.69675926  0.22016607  0.03635605     0.02500
C1659       C  0.55066440  0.29936992  0.04000997    -0.05400
H1660       H  0.52984966  0.20495218  0.04029877     0.07900
C1661       C  0.60845914  0.19800828  0.41848808    -0.05800
Co1662     Co  0.63617837  0.25489080  0.05258849     0.74200
N1663       N  0.57858660  0.22008175  0.03390836    -0.25000
Co1664     Co  0.57983233  0.25002874  0.99372700     0.74100
C1665       C  0.57484653  0.19263360  0.41476638     0.43700
N1666       N  0.67920422  0.21429633  0.45346046     0.02100
N1667       N  0.58291342  0.21324818  0.45968176     0.02200
N1668       N  0.58803125  0.29973218  0.07673609    -0.45800
H1669       H  0.65017418  0.18316789  0.08214133     0.07900
N1670       N  0.60197576  0.22137487  0.05401658     0.02500
N1671       N  0.57978660  0.27771978  0.45556823     0.02200
C1672       C  0.57086263  0.29377971  0.40817736     0.43800
N1673       N  0.70067889  0.21763644  0.47475867    -0.24400
C1674       C  0.66793016  0.32032034  0.06098503    -0.05300
N1675       N  0.71219392  0.19315236  0.03647862    -0.45500
N1676       N  0.55672676  0.28506211  0.43566640    -0.45700
C1677       C  0.69528500  0.33660122  0.04715804     0.43600
N1678       N  0.59877877  0.28644850  0.05094354     0.02400
N1679       N  0.69448741  0.28722722  0.47310942    -0.24400
N1680       N  0.67152808  0.21990629  0.05467173    -0.24900
N1681       N  0.67532449  0.28418700  0.44970030     0.02100
H1682       H  0.72078954  0.32657516  0.48926674     0.08000
H1683       H  0.62284750  0.28754919  0.39511659     0.08000
N1684       N  0.57714764  0.28515393  0.02890826    -0.25000
N1685       N  0.61082556  0.21245557  0.44522680    -0.24600
N1686       N  0.69473458  0.28911954  0.03145866     0.02500
C1687       C  0.56514852  0.19860471  0.08022558     0.43900
C1688       C  0.71860496  0.19159453  0.47529702    -0.05800
N1689       N  0.60764225  0.27879393  0.44106549    -0.24600
H1690       H  0.62636281  0.20016330  0.40046161     0.08000
N1691       N  0.59477895  0.20915563  0.08106870    -0.45800
H1692       H  0.73651661  0.18600086  0.49174224     0.08000
C1693       C  0.69139542  0.33150953  0.44564843     0.43700
C1694       C  0.66975622  0.19147787  0.06808754    -0.05300
Co1695     Co  0.69498984  0.25294671  0.50764690     0.73800
N1696       N  0.67967578  0.18610619  0.44112363    -0.45500
C1697       C  0.55785663  0.30838993  0.07186107     0.44000
N1698       N  0.71060695  0.31552728  0.02950702    -0.45500
Co1699     Co  0.64377282  0.24735316  0.44775299     0.73900
C1700       C  0.60456489  0.29023689  0.41272338    -0.05800
C1701       C  0.55389235  0.20577837  0.04867832    -0.05400
N1702       N  0.66960734  0.29107577  0.04988030    -0.24900
N1703       N  0.56029282  0.20290734  0.44119446    -0.45700
H1704       H  0.52752204  0.29821779  0.02960773     0.08000
C1705       C  0.70632462  0.31620404  0.47205795    -0.05800
Cl1706     Cl  0.63965648  0.25116572  0.99765090    -0.48800
C1707       C  0.70393779  0.17027157  0.45401561     0.43700
H1708       H  0.64865579  0.32968082  0.07496994     0.07900
N1709       N  0.67263069  0.31003924  0.43302249    -0.45500
C1710       C  0.93575067  0.20944828  0.09327731     0.43600
N1711       N  0.92270035  0.22811629  0.04827472     0.02500
C1712       C  0.78805609  0.32008018  0.04422801    -0.05400
H1713       H  0.77314665  0.18555425  0.03008777     0.07900
C1714       C  0.83774804  0.19332914  0.43671672    -0.05800
Co1715     Co  0.86006535  0.25815064  0.06379189     0.74200
N1716       N  0.80507225  0.22169015  0.04351940    -0.25000
Co1717     Co  0.80474882  0.25728274  0.50194034     0.74100
C1718       C  0.81279324  0.17419206  0.44972708     0.43700
N1719       N  0.90433445  0.22323992  0.45796395     0.02100
N1720       N  0.81117917  0.21944837  0.47121733     0.02200
N1721       N  0.82662510  0.31808863  0.07919750    -0.45800
H1722       H  0.88486917  0.21428007  0.11074263     0.07900
N1723       N  0.82726658  0.22254345  0.06440514     0.02500
N1724       N  0.80827660  0.29027785  0.46572398     0.02200
C1725       C  0.80867969  0.33446805  0.44147694     0.43800
N1726       N  0.92822826  0.22843414  0.47668786    -0.24400
C1727       C  0.89823159  0.30768715  0.08913840    -0.05300
N1728       N  0.94752039  0.21998138  0.06557642    -0.45500
N1729       N  0.79372611  0.31785683  0.46396806    -0.45700
C1730       C  0.93201673  0.31335365  0.08977512     0.43600
N1731       N  0.82482805  0.29166788  0.06382434     0.02400
N1732       N  0.92489292  0.29240968  0.47096667    -0.24400
N1733       N  0.89611104  0.22593163  0.06470463    -0.24900
N1734       N  0.90196907  0.28970181  0.45057167     0.02100
H1735       H  0.97371039  0.30715113  0.46449374     0.08000
H1736       H  0.85313822  0.32111230  0.41386473     0.08000
N1737       N  0.80278864  0.29201914  0.04271404    -0.25000
N1738       N  0.83556971  0.22020384  0.45196795    -0.24600
N1739       N  0.91987530  0.29254781  0.04610273     0.02500
C1740       C  0.80749247  0.17683375  0.06979204     0.43900
C1741       C  0.95501563  0.21780538  0.46221312    -0.05800
N1742       N  0.83277113  0.28860737  0.44655439    -0.24600
H1743       H  0.85658976  0.18676180  0.42076391     0.08000
N1744       N  0.82974581  0.19621605  0.08033899    -0.45800
H1745       H  0.97893504  0.22356126  0.46876719     0.08000
C1746       C  0.93896682  0.31186811  0.42397756     0.43700
C1747       C  0.90161899  0.21256420  0.09165352    -0.05300
Co1748     Co  0.92277983  0.25981938  0.01008385     0.73800
N1749       N  0.91308377  0.20828544  0.43297173    -0.45500
C1750       C  0.80444149  0.33758119  0.06810385     0.44000
N1751       N  0.94416716  0.30303699  0.06234128    -0.45500
Co1752     Co  0.86821556  0.25540911  0.45195815     0.73900
C1753       C  0.83402253  0.31469870  0.42947562    -0.05800
C1754       C  0.79070231  0.19397922  0.04564693    -0.05400
N1755       N  0.89352033  0.29285280  0.06310395    -0.24900
N1756       N  0.79720972  0.19170403  0.47123460    -0.45700
H1757       H  0.77030727  0.32884164  0.02876955     0.08000
C1758       C  0.94973837  0.30618437  0.45595294    -0.05800
Cl1759     Cl  0.86244292  0.25814433  0.00948324    -0.48800
C1760       C  0.94464087  0.20465692  0.43263482     0.43700
H1761       H  0.88218391  0.30547693  0.10874707     0.07900
N1762       N  0.90950494  0.30092726  0.42319382    -0.45500
C1763       C  0.68204489  0.08410588  0.06189513     0.43600
N1764       N  0.70682832  0.03952984  0.06121653     0.02500
C1765       C  0.70249537  0.45653527  0.18928800    -0.05400
H1766       H  0.69958560  0.04683841  0.22219018     0.07900
C1767       C  0.82740667  0.05995424  0.14993046    -0.05800
Co1768     Co  0.68937622  0.00340500  0.11719407     0.74200
N1769       N  0.70821203  0.03619315  0.17404009    -0.25000
Co1770     Co  0.74855879  0.00600831  0.17269969     0.74100
C1771       C  0.82425090  0.06868230  0.18178478     0.43700
N1772       N  0.79836719  0.04381634  0.07782581     0.02100
N1773       N  0.78355527  0.04143688  0.16963647     0.02200
N1774       N  0.66862963  0.45626927  0.14966253    -0.45800
H1775       H  0.65153755  0.06979900  0.10327685     0.07900
N1776       N  0.68841697  0.03625530  0.15062700     0.02500
N1777       N  0.79058968  0.47412424  0.16118553     0.02200
C1778       C  0.83450061  0.45159263  0.17464533     0.43800
N1779       N  0.77627262  0.04162303  0.05688996    -0.24400
C1780       C  0.67241472  0.44526226  0.07619753    -0.05300
N1781       N  0.70575006  0.06756677  0.04793486    -0.45500
N1782       N  0.80500355  0.46037713  0.18487264    -0.45700
C1783       C  0.68549620  0.42613037  0.05185354     0.43600
N1784       N  0.69453725  0.47155709  0.14247741     0.02400
N1785       N  0.78087085  0.47250213  0.04826409    -0.24400
N1786       N  0.68600210  0.03758792  0.08401383    -0.24900
N1787       N  0.80279387  0.47139502  0.06955761     0.02100
H1788       H  0.76396729  0.43814189  0.01745336     0.08000
H1789       H  0.85842890  0.46223040  0.12829479     0.08000
N1790       N  0.71526323  0.47239011  0.16510298    -0.25000
N1791       N  0.80221955  0.04250728  0.14480021    -0.24600
N1792       N  0.71092354  0.46967722  0.05288947     0.02500
C1793       C  0.65981532  0.05528055  0.18703315     0.43900
C1794       C  0.77483239  0.06883212  0.04172622    -0.05800
N1795       N  0.80971309  0.47513540  0.13666712    -0.24600
H1796       H  0.84824046  0.06101384  0.13502420     0.08000
N1797       N  0.66018417  0.04761378  0.15746828    -0.45800
H1798       H  0.75701423  0.07578923  0.02572926     0.08000
C1799       C  0.80380112  0.42580426  0.04906349     0.43700
C1800       C  0.66853282  0.06382298  0.08532068    -0.05300
Co1801     Co  0.74361354  0.00514521  0.05822197     0.73800
N1802       N  0.81111016  0.07196532  0.07883120    -0.45500
C1803       C  0.67123818  0.44627840  0.17859797     0.44000
N1804       N  0.70959066  0.44246693  0.03838828    -0.45500
Co1805     Co  0.80300258  0.00956869  0.11113797     0.73900
C1806       C  0.83730062  0.46107333  0.14278553    -0.05800
C1807       C  0.69198144  0.04823184  0.19853638    -0.05400
N1808       N  0.69015756  0.47088754  0.07577715    -0.24900
N1809       N  0.79660317  0.05646996  0.19292817    -0.45700
H1810       H  0.71135570  0.45671946  0.21253493     0.08000
C1811       C  0.78125169  0.44544851  0.03351604    -0.05800
Cl1812     Cl  0.74617660  0.00597795  0.11499970    -0.48800
C1813       C  0.79737972  0.08890385  0.05634025     0.43700
H1814       H  0.65477734  0.43926733  0.09356666     0.07900
N1815       N  0.81630112  0.44328293  0.07167084    -0.45500
C1816       C  0.66636367  0.05504736  0.33159540     0.43600
N1817       N  0.70972538  0.03288539  0.34647984     0.02500
C1818       C  0.71238096  0.44150374  0.47337544    -0.05400
H1819       H  0.72377615  0.07472167  0.48848863     0.07900
C1820       C  0.81583822  0.06798553  0.43640579    -0.05800
Co1821     Co  0.69149977  0.99979936  0.40487314     0.74200
N1822       N  0.71111698  0.03701773  0.45863109    -0.25000
Co1823     Co  0.74743539  0.00323211  0.46089581     0.74100
C1824       C  0.79974013  0.08549993  0.46098428     0.43700
N1825       N  0.80494514  0.03712192  0.36942959     0.02100
N1826       N  0.78076770  0.03898453  0.45913385     0.02200
N1827       N  0.68029961  0.43665663  0.43306359    -0.45800
H1828       H  0.64102068  0.04499237  0.37726213     0.07900
N1829       N  0.68983958  0.03542938  0.43686883     0.02500
N1830       N  0.78224508  0.46977003  0.45692220     0.02200
C1831       C  0.80190883  0.42297299  0.45805269     0.43800
N1832       N  0.78517223  0.03567134  0.34599484    -0.24400
C1833       C  0.66738988  0.44780085  0.36069991    -0.05300
N1834       N  0.69609885  0.04620811  0.32217331    -0.45500
N1835       N  0.78051174  0.44244783  0.47106319    -0.45700
C1836       C  0.67300426  0.43718539  0.32967656     0.43600
N1837       N  0.69266462  0.46503985  0.43426768     0.02400
N1838       N  0.78916590  0.46785859  0.34439520    -0.24400
N1839       N  0.68965647  0.03192941  0.37025160    -0.24900
N1840       N  0.80881701  0.47008938  0.36782459     0.02100
H1841       H  0.79730167  0.45106323  0.29801652     0.08000
H1842       H  0.83433285  0.43309001  0.41640578     0.08000
N1843       N  0.71270428  0.46793369  0.45694241    -0.25000
N1844       N  0.80219771  0.03975693  0.43677906    -0.24600
N1845       N  0.71348949  0.46389771  0.34387701     0.02500
C1846       C  0.68465219  0.08227408  0.45382803     0.43900
C1847       C  0.79888743  0.05115935  0.32206195    -0.05800
N1848       N  0.80384701  0.46955508  0.43469535    -0.24600
H1849       H  0.83262685  0.07618884  0.41916682     0.08000
N1850       N  0.67393154  0.06195437  0.43301831    -0.45800
H1851       H  0.79097833  0.05051623  0.29849508     0.08000
C1852       C  0.83700670  0.44651162  0.33379186     0.43700
C1853       C  0.66257253  0.04618162  0.36339101    -0.05300
Co1854     Co  0.74891205  0.00126117  0.34609623     0.73800
N1855       N  0.83136490  0.05203424  0.36281276    -0.45500
C1856       C  0.69167581  0.42067589  0.45751171     0.44000
N1857       N  0.70198894  0.44795525  0.32035045    -0.45500
Co1858     Co  0.80544616  0.00463079  0.40399333     0.73900
C1859       C  0.81789673  0.44121446  0.43398973    -0.05800
C1860       C  0.70856117  0.06536684  0.47144215    -0.05400
N1861       N  0.69275605  0.46461513  0.36715736    -0.24900
N1862       N  0.77861139  0.06579573  0.47390334    -0.45700
H1863       H  0.72876374  0.43513382  0.49081462     0.08000
C1864       C  0.80499630  0.45257597  0.32160736    -0.05800
Cl1865     Cl  0.74844554  0.00226301  0.40342489    -0.48800
C1866       C  0.82977238  0.06159783  0.33358863     0.43700
H1867       H  0.64543135  0.44793731  0.37401542     0.07900
N1868       N  0.83713315  0.45795567  0.36221984    -0.45500
C1869       C  0.54971474  0.19909912  0.16717683     0.43600
N1870       N  0.53590407  0.19749462  0.21536167     0.02500
C1871       C  0.54847054  0.05993854  0.30055788    -0.05400
H1872       H  0.53403430  0.03196005  0.21251445     0.07900
C1873       C  0.90855672  0.11710375  0.21586069    -0.05800
Co1874     Co  0.55548673  0.13794919  0.24438409     0.74200
N1875       N  0.52783990  0.08150200  0.21842767    -0.25000
Co1876     Co  0.99371490  0.08879439  0.25511709     0.74100
C1877       C  0.90953851  0.08594361  0.20400318     0.43700
N1878       N  0.94540388  0.18778371  0.22881385     0.02100
N1879       N  0.95405159  0.09509779  0.22587709     0.02200
N1880       N  0.58552402  0.09596568  0.28896886    -0.45800
H1881       H  0.57515538  0.15191695  0.17014353     0.07900
N1882       N  0.54760781  0.10463649  0.21243187     0.02500
N1883       N  0.95909146  0.09210297  0.29131643     0.02200
C1884       C  0.91667361  0.08019827  0.31736732     0.43800
N1885       N  0.96928946  0.20727411  0.22646338    -0.24400
C1886       C  0.58323535  0.16683823  0.30264449    -0.05300
N1887       N  0.53472604  0.21498656  0.19002901    -0.45500
N1888       N  0.94405507  0.06839162  0.30487675    -0.45700
C1889       C  0.57154446  0.18858207  0.32555958     0.43600
N1890       N  0.55804798  0.10317184  0.27681592     0.02400
N1891       N  0.97519922  0.20331256  0.29726095    -0.24400
N1892       N  0.55235715  0.17179737  0.21066148    -0.24900
N1893       N  0.95047951  0.18481560  0.29677223     0.02100
H1894       H  0.99603818  0.22783445  0.33580882     0.08000
H1895       H  0.89564683  0.12874895  0.31174035     0.08000
N1896       N  0.53554021  0.08244922  0.28253923    -0.25000
N1897       N  0.93643841  0.12055566  0.22930073    -0.24600
N1898       N  0.54408852  0.19361553  0.28436376     0.02500
C1899       C  0.57184124  0.06531905  0.19293561     0.43900
C1900       C  0.96818236  0.22037926  0.19796368    -0.05800
N1901       N  0.94193308  0.11797825  0.29357288    -0.24600
H1902       H  0.88848991  0.13285818  0.21831633     0.08000
N1903       N  0.57310246  0.09595255  0.19681852    -0.45800
H1904       H  0.98519467  0.23576890  0.18770458     0.08000
C1905       C  0.95137399  0.19947899  0.34393477     0.43700
C1906       C  0.56219452  0.17078823  0.18102920    -0.05300
Co1907     Co  0.00671343  0.20377850  0.25847497     0.73800
N1908       N  0.92876152  0.18613396  0.20335321    -0.45500
C1909       C  0.58189742  0.06935133  0.30434922     0.44000
N1910       N  0.54739562  0.20466894  0.31270505    -0.45500
Co1911     Co  0.94370296  0.15349857  0.26211808     0.73900
C1912       C  0.91576689  0.11293325  0.31034900    -0.05800
C1913       C  0.54136211  0.05536753  0.20673731    -0.05400
N1914       N  0.56385427  0.17040121  0.27866213    -0.29700
N1915       N  0.93833795  0.07328459  0.21087761    -0.45700
H1916       H  0.53742298  0.03807628  0.30662991     0.08000
C1917       C  0.97739886  0.21403622  0.32655240    -0.05800
Cl1918     Cl  0.00008436  0.14654305  0.25614867    -0.48800
C1919       C  0.94194432  0.20539358  0.18242618     0.43700
H1920       H  0.60027584  0.14825723  0.30584172     0.07900
N1921       N  0.93576032  0.18217789  0.32372328    -0.45500
C1922       C  0.58527237  0.42764685  0.18919869     0.43600
N1923       N  0.54242535  0.41117936  0.21138974     0.02500
C1924       C  0.54248418  0.28102745  0.30142034    -0.05400
H1925       H  0.51713482  0.26879329  0.16500393     0.07900
C1926       C  0.92247609  0.33419331  0.20127836    -0.05800
Co1927     Co  0.56217096  0.34959836  0.23686946     0.74200
N1928       N  0.53634764  0.29670834  0.20146934    -0.25000
Co1929     Co  0.99896659  0.30201134  0.25104081     0.74100
C1930       C  0.93659208  0.31457707  0.17789385     0.43700
N1931       N  0.94272271  0.39826251  0.22917415     0.02100
N1932       N  0.96192282  0.30829044  0.22007010     0.02200
N1933       N  0.57975508  0.31731195  0.29616924    -0.45800
H1934       H  0.60835192  0.37977210  0.19043314     0.07900
N1935       N  0.55734753  0.31903412  0.20006402     0.02500
N1936       N  0.96744230  0.30315339  0.28984255     0.02200
C1937       C  0.95410342  0.30245641  0.33825047     0.43800
N1938       N  0.96469102  0.42003828  0.22597880    -0.24400
C1939       C  0.59430921  0.38615034  0.28522702    -0.05300
N1940       N  0.55691541  0.43684195  0.20152483    -0.45500
N1941       N  0.97043667  0.28699947  0.31593659    -0.45700
C1942       C  0.59052828  0.41588857  0.29983158     0.43600
N1943       N  0.56355763  0.31454837  0.27033435     0.02400
N1944       N  0.96935761  0.41863467  0.29099595    -0.24400
N1945       N  0.56085627  0.38639983  0.20703637    -0.24900
N1946       N  0.94942322  0.39512122  0.29377410     0.02100
H1947       H  0.96380278  0.46683586  0.30444136     0.08000
H1948       H  0.92570250  0.34761326  0.33412047     0.08000
N1949       N  0.54088974  0.29377162  0.27277322    -0.25000
N1950       N  0.94071511  0.33026443  0.22584301    -0.24600
N1951       N  0.54706141  0.40505308  0.27642835     0.02500
C1952       C  0.55227380  0.30620833  0.15122664     0.43900
C1953       C  0.95188302  0.44332044  0.20880718    -0.05800
N1954       N  0.94910167  0.32781627  0.29387885    -0.24600
H1955       H  0.90495454  0.35236274  0.19819458     0.08000
N1956       N  0.56695696  0.32522476  0.17128592    -0.45800
H1957       H  0.96243570  0.46586882  0.20481581     0.08000
C1958       C  0.92510630  0.43140891  0.31826019     0.43700
C1959       C  0.58727176  0.39432514  0.19194939    -0.05300
Co1960     Co  0.50721129  0.41011246  0.24674651     0.73800
N1961       N  0.91559304  0.40558229  0.21611611    -0.45500
C1962       C  0.56758055  0.29743570  0.31733529     0.44000
N1963       N  0.56072392  0.42668703  0.29354189    -0.45500
Co1964     Co  0.94537065  0.36225807  0.26079447     0.73900
C1965       C  0.93933516  0.32906740  0.32350206    -0.05800
C1966       C  0.53405218  0.28564423  0.17241423    -0.05400
N1967       N  0.56693517  0.38156458  0.27114836    -0.24900
N1968       N  0.96092311  0.29884496  0.19093241    -0.45700
H1969       H  0.52638213  0.26472326  0.31142834     0.08000
C1970       C  0.95589866  0.44300846  0.30620015    -0.05800
Cl1971     Cl  0.00184186  0.35969846  0.25382471    -0.48800
C1972       C  0.91903631  0.43334100  0.20258775     0.43700
H1973       H  0.61551811  0.37202490  0.28215534     0.07900
N1974       N  0.92347936  0.40186111  0.30965146    -0.45500
C1975       C  0.86686105  0.43762533  0.31772687    -0.15300
C1976       C  0.89557384  0.44825011  0.32700950    -0.30500
H1977       H  0.86551147  0.42018842  0.29981605     0.13700
H1978       H  0.89703440  0.46718431  0.34333973     0.14300
C1979       C  0.64762314  0.42570803  0.30953359    -0.15300
C1980       C  0.61641824  0.43277454  0.31501043    -0.30500
H1981       H  0.65456835  0.41032034  0.29083567     0.13700
H1982       H  0.60968639  0.45019749  0.33193184     0.14300
C1983       C  0.85861565  0.07168287  0.31662935    -0.15300
C1984       C  0.88795650  0.06241038  0.32594356    -0.30500
H1985       H  0.85596646  0.08891747  0.29841981     0.13700
H1986       H  0.89054294  0.04356318  0.34254152     0.14300
C1987       C  0.63938276  0.06271734  0.31160719    -0.15300
C1988       C  0.60918103  0.05396834  0.31906607    -0.30500
H1989       H  0.64404858  0.07756187  0.29171637     0.13700
H1990       H  0.60445968  0.03733490  0.33746049     0.14300
C1991       C  0.86144637  0.44125828  0.19395335    -0.15300
C1992       C  0.89203924  0.44956151  0.18761673    -0.30500
H1993       H  0.85619159  0.42541089  0.21292493     0.13700
H1994       H  0.89729773  0.46712397  0.17022506     0.14300
C1995       C  0.61365606  0.44718917  0.18613284    -0.15300
C1996       C  0.64249796  0.43691616  0.19585839    -0.30500
H1997       H  0.61183958  0.46750428  0.17120536     0.13700
H1998       H  0.64449103  0.41786926  0.21230075     0.14300
C1999       C  0.85156581  0.07825920  0.20025805    -0.15300
C2000       C  0.88169228  0.06950597  0.19225869    -0.30500
H2001       H  0.84713767  0.09431734  0.21906495     0.13700
H2002       H  0.88595744  0.05143061  0.17530110     0.14300
C2003       C  0.62896928  0.05945868  0.20319789    -0.15300
C2004       C  0.60204577  0.04780416  0.19066875    -0.30500
H2005       H  0.62749629  0.07670469  0.22134925     0.13700
H2006       H  0.60352430  0.02958185  0.17349393     0.14300
C2007       C  0.80746742  0.37190816  0.07117462    -0.15300
C2008       C  0.80236339  0.39134137  0.04735325    -0.30500
H2009       H  0.81596701  0.38109431  0.09275045     0.13700
H2010       H  0.79410820  0.38178444  0.02585424     0.14300
C2011       C  0.79605517  0.12318895  0.05405182    -0.15300
C2012       C  0.80943847  0.14257835  0.07407319    -0.30500
H2013       H  0.78218165  0.13276691  0.03545957     0.13700
H2014       H  0.82340182  0.13325994  0.09289559     0.14300
C2015       C  0.80926100  0.36897055  0.43855567    -0.15300
C2016       C  0.79912984  0.38850265  0.46085539    -0.30500
H2017       H  0.82092295  0.37845661  0.41811690     0.13700
H2018       H  0.78743151  0.37910905  0.48132127     0.14300
C2019       C  0.81214398  0.13987865  0.44576116    -0.15300
C2020       C  0.79804038  0.11984517  0.46542496    -0.30500
H2021       H  0.82587625  0.13072390  0.42641356     0.13700
H2022       H  0.78415476  0.12879920  0.48468145     0.14300
C2023       C  0.95679936  0.31567900  0.39432629    -0.15300
C2024       C  0.95298871  0.29441044  0.37163161    -0.30500
H2025       H  0.96635196  0.33845167  0.38878754     0.13700
H2026       H  0.94428154  0.27139828  0.37760463     0.14300
C2027       C  0.93111958  0.32093280  0.14498237    -0.15300
C2028       C  0.94791387  0.31088875  0.12014905    -0.30500
H2029       H  0.91027738  0.33548098  0.14105979     0.13700
H2030       H  0.96970598  0.29751727  0.12266187     0.14300
C2031       C  0.96094841  0.20494449  0.40179729    -0.15300
C2032       C  0.94329785  0.19736763  0.37713645    -0.30500
H2033       H  0.98478500  0.21393162  0.39901709     0.13700
H2034       H  0.91985853  0.18762582  0.38133964     0.14300
C2035       C  0.95142722  0.21140645  0.12403041    -0.15300
C2036       C  0.93457700  0.20194757  0.14933555    -0.30500
H2037       H  0.97435749  0.22249665  0.12618048     0.13700
H2038       H  0.91285298  0.18910911  0.14588687     0.14300
C2039       C  0.69366560  0.38646166  0.46160346    -0.15300
C2040       C  0.68726691  0.36547593  0.43983060    -0.30500
H2041       H  0.70301008  0.37836096  0.48333451     0.13700
H2042       H  0.67772221  0.37315167  0.41793196     0.14300
C2043       C  0.68231189  0.11657025  0.44924181    -0.15300
C2044       C  0.70584465  0.13589074  0.45727770    -0.30500
H2045       H  0.66152658  0.12587925  0.43772828     0.13700
H2046       H  0.72668882  0.12645691  0.46851090     0.14300
C2047       C  0.70184021  0.37056861  0.04482922    -0.15300
C2048       C  0.67923518  0.39223607  0.05012671    -0.30500
H2049       H  0.72562899  0.37779234  0.03800546     0.13700
H2050       H  0.65563843  0.38472351  0.05722363     0.14300
C2051       C  0.70064578  0.13890486  0.05307737    -0.15300
C2052       C  0.67812744  0.11866133  0.06243802    -0.30500
H2053       H  0.72241234  0.13001605  0.04246005     0.13700
H2054       H  0.65650421  0.12763576  0.07323926     0.14300
C2055       C  0.57550447  0.29956443  0.35089751    -0.15300
C2056       C  0.55708547  0.29211966  0.37616787    -0.30500
H2057       H  0.59849561  0.30990794  0.35475110     0.13700
H2058       H  0.53311972  0.28361824  0.37327734     0.14300
C2059       C  0.53345934  0.32182364  0.12623729    -0.15300
C2060       C  0.53499263  0.32211051  0.09472246    -0.30500
H2061       H  0.51325205  0.33474710  0.13572214     0.13700
H2062       H  0.51542164  0.33431214  0.08374627     0.14300
C2063       C  0.56080031  0.19361410  0.38327474    -0.15300
C2064       C  0.57944879  0.18595508  0.35861975    -0.30500
H2065       H  0.53679604  0.20244489  0.38013452     0.13700
H2066       H  0.60240814  0.17510791  0.36264347     0.14300
C2067       C  0.55406239  0.20990760  0.13482103    -0.15300
C2068       C  0.54783461  0.19226490  0.10977236    -0.30500
H2069       H  0.56593706  0.23206406  0.13161256     0.13700
H2070       H  0.53457712  0.17083082  0.11226933     0.14300
C2071       C  0.69348691  0.17035242  0.55868524     0.43600
N2072       N  0.69231948  0.21776197  0.54140695     0.02500
C2073       C  0.54606529  0.29646510  0.54088699    -0.05400
H2074       H  0.52460930  0.20162187  0.53969032     0.07900
C2075       C  0.60730601  0.19720359  0.91797597    -0.05800
Co2076     Co  0.62999529  0.24862944  0.55696396     0.74200
N2077       N  0.57399316  0.21488239  0.53398832    -0.25000
Co2078     Co  0.57651234  0.24674988  0.49522614     0.74100
C2079       C  0.57334862  0.19403784  0.91475112     0.43700
N2080       N  0.67940635  0.21200484  0.94931086     0.02100
N2081       N  0.58356591  0.21494478  0.95921026     0.02200
N2082       N  0.58094312  0.29408877  0.57994113    -0.45800
H2083       H  0.64590348  0.17704869  0.58424607     0.07900
N2084       N  0.59726385  0.21412342  0.55421867     0.02500
N2085       N  0.58237582  0.27912815  0.95286291     0.02200
C2086       C  0.57220975  0.29375258  0.90539777     0.43800
N2087       N  0.70182454  0.21525798  0.96967977    -0.24400
C2088       C  0.65897316  0.31122818  0.57601838    -0.05300
N2089       N  0.70895915  0.19137393  0.54093152    -0.45500
N2090       N  0.55877849  0.28662141  0.93362944    -0.45700
C2091       C  0.68409286  0.33142817  0.56460030     0.43600
N2092       N  0.59212846  0.27985437  0.55488519     0.02400
N2093       N  0.69868666  0.28492850  0.96415046    -0.24400
N2094       N  0.66644714  0.21541884  0.55869958    -0.24900
N2095       N  0.67784799  0.28187220  0.94217105     0.02100
H2096       H  0.72774885  0.32381237  0.97689045     0.08000
H2097       H  0.62340243  0.28489761  0.89070819     0.08000
N2098       N  0.57199478  0.28024965  0.53152138    -0.25000
N2099       N  0.61103644  0.21219849  0.94423859    -0.24600
N2100       N  0.68683354  0.28755838  0.54086089     0.02500
C2101       C  0.55959143  0.19101584  0.57910712     0.43900
C2102       C  0.71829274  0.18833270  0.97111349    -0.05800
N2103       N  0.60965675  0.27850736  0.93730094    -0.24600
H2104       H  0.62493399  0.19821747  0.89960376     0.08000
N2105       N  0.58964724  0.20020006  0.58032623    -0.45800
H2106       H  0.73641008  0.18253765  0.98739442     0.08000
C2107       C  0.69535644  0.32845292  0.93555018     0.43700
C2108       C  0.66551616  0.18661907  0.57107831    -0.05300
Co2109     Co  0.69932768  0.25256320  0.00051234     0.73800
N2110       N  0.67787423  0.18324074  0.93850585    -0.45500
C2111       C  0.55203418  0.30513891  0.57307208     0.44000
N2112       N  0.70044655  0.31529765  0.54271314    -0.45500
Co2113     Co  0.64499021  0.24610848  0.94363711     0.73900
C2114       C  0.60591203  0.28902239  0.90878043    -0.05800
C2115       C  0.54868102  0.20085909  0.54805198    -0.05400
N2116       N  0.66205969  0.28503992  0.55963650    -0.24900
N2117       N  0.55999743  0.20566107  0.94124499    -0.45700
H2118       H  0.52384598  0.29768378  0.52873444     0.08000
C2119       C  0.71165229  0.31331346  0.96117351    -0.05800
Cl2120     Cl  0.63595582  0.24919989  0.50189171    -0.48800
C2121       C  0.70167468  0.16681786  0.95145327     0.43700
H2122       H  0.63953872  0.31672358  0.59170453     0.07900
N2123       N  0.67491296  0.30732554  0.92490510    -0.45500
C2124       C  0.93058334  0.21189254  0.59488838     0.43600
N2125       N  0.92045029  0.23303024  0.55040707     0.02500
C2126       C  0.78344596  0.32100411  0.53105014    -0.05400
H2127       H  0.77458091  0.18768626  0.52515409     0.07900
C2128       C  0.83140837  0.19682208  0.93841027    -0.05800
Co2129     Co  0.85713010  0.26472896  0.56050601     0.74200
N2130       N  0.80445459  0.22541528  0.53837177    -0.25000
Co2131     Co  0.80318566  0.25612319  0.00938463     0.74100
C2132       C  0.80814857  0.17636380  0.95251780     0.43700
N2133       N  0.89912842  0.22537963  0.95555943     0.02100
N2134       N  0.80730583  0.22065247  0.97600900     0.02200
N2135       N  0.82157423  0.32628284  0.56628557    -0.45800
H2136       H  0.87987753  0.22095670  0.61197163     0.07900
N2137       N  0.82483976  0.22827221  0.56076281     0.02500
N2138       N  0.80357362  0.29073430  0.97534387     0.02200
C2139       C  0.80050347  0.33732176  0.95667259     0.43800
N2140       N  0.92365903  0.22684441  0.97422917    -0.24400
C2141       C  0.89377018  0.31574969  0.58667920    -0.05300
N2142       N  0.94398642  0.22170710  0.56764529    -0.45500
N2143       N  0.78701582  0.31705623  0.97660548    -0.45700
C2144       C  0.92725221  0.32238558  0.58831144     0.43600
N2145       N  0.82184426  0.29793591  0.55431528     0.02400
N2146       N  0.92216262  0.29140896  0.97148565    -0.24400
N2147       N  0.89337064  0.23315115  0.56631052    -0.24900
N2148       N  0.89734104  0.29186746  0.95304755     0.02100
H2149       H  0.97158474  0.30160377  0.96137136     0.08000
H2150       H  0.84563388  0.32977761  0.92703209     0.08000
N2151       N  0.80067036  0.29458607  0.53268202    -0.25000
N2152       N  0.82994695  0.22302859  0.95491916    -0.24600
N2153       N  0.91773280  0.29832688  0.54540566     0.02500
C2154       C  0.80581744  0.18226356  0.56746232     0.43900
C2155       C  0.94881261  0.21327638  0.95956431    -0.05800
N2156       N  0.82758898  0.29241156  0.95562764    -0.24600
H2157       H  0.84911192  0.19129918  0.92094301     0.08000
N2158       N  0.82670865  0.20292632  0.57834762    -0.45800
H2159       H  0.97328823  0.21530799  0.96645263     0.08000
C2160       C  0.93422119  0.31153117  0.92413456     0.43700
C2161       C  0.89708001  0.21914008  0.59326790    -0.05300
Co2162     Co  0.92363707  0.26321408  0.51107161     0.73800
N2163       N  0.90593843  0.21101025  0.92973390    -0.45500
C2164       C  0.79786601  0.34224090  0.55264546     0.44000
N2165       N  0.94084178  0.31071150  0.56198142    -0.45500
Co2166     Co  0.86301431  0.25831478  0.95482885     0.73900
C2167       C  0.82737284  0.32077961  0.94234259    -0.05800
C2168       C  0.79061344  0.19752601  0.54125916    -0.05400
N2169       N  0.89049229  0.29939657  0.56106342    -0.24900
N2170       N  0.79421922  0.19253052  0.97595361    -0.45700
H2171       H  0.76595063  0.32646011  0.51407357     0.08000
C2172       C  0.94691720  0.30352123  0.95493197    -0.05800
Cl2173     Cl  0.86399904  0.26027506  0.50638096    -0.48800
C2174       C  0.93672775  0.20311661  0.92955946     0.43700
H2175       H  0.87685298  0.31528794  0.60573132     0.07900
N2176       N  0.90364921  0.30362858  0.92552676    -0.45500
C2177       C  0.68013059  0.08107695  0.56071424     0.43600
N2178       N  0.70751370  0.03824045  0.56009249     0.02500
C2179       C  0.70029303  0.45512046  0.69458259    -0.05400
H2180       H  0.69752803  0.04729947  0.71965021     0.07900
C2181       C  0.82500308  0.06184214  0.65307596    -0.05800
Co2182     Co  0.69047893  0.99923382  0.61485843     0.74200
N2183       N  0.70602971  0.03328031  0.67233510    -0.25000
Co2184     Co  0.74765662  0.00483112  0.67189622     0.74100
C2185       C  0.82181028  0.06757381  0.68559462     0.43700
N2186       N  0.79795217  0.04797803  0.57949679     0.02100
N2187       N  0.78119973  0.04153562  0.67094472     0.02200
N2188       N  0.66948644  0.45135898  0.65303489    -0.45800
H2189       H  0.64910230  0.06410293  0.60085154     0.07900
N2190       N  0.68620265  0.03132440  0.64901624     0.02500
N2191       N  0.79018793  0.47629751  0.66727638     0.02200
C2192       C  0.83456368  0.45413636  0.67951669     0.43800
N2193       N  0.77660455  0.04527133  0.55792212    -0.24400
C2194       C  0.68265925  0.43699195  0.58115844    -0.05300
N2195       N  0.70519844  0.06631789  0.54725560    -0.45500
N2196       N  0.80471635  0.46127336  0.69016997    -0.45700
C2197       C  0.69934159  0.42001901  0.55682360     0.43600
N2198       N  0.69526809  0.46724428  0.64666672     0.02400
N2199       N  0.78511271  0.47499593  0.55523037    -0.24400
N2200       N  0.68606197  0.03428141  0.58208838    -0.24900
N2201       N  0.80700496  0.47710067  0.57634286     0.02100
H2202       H  0.77243614  0.43731076  0.52574218     0.08000
H2203       H  0.85843022  0.46812708  0.63404030     0.08000
N2204       N  0.71441557  0.47005606  0.67040403    -0.25000
N2205       N  0.80006726  0.04463820  0.64642165    -0.24600
N2206       N  0.71594321  0.46764909  0.55765034     0.02500
C2207       C  0.65727039  0.05172590  0.68431614     0.43900
C2208       C  0.77444583  0.07259379  0.54305426    -0.05800
N2209       N  0.80963335  0.47964191  0.64318736    -0.24600
H2210       H  0.84619307  0.06353907  0.63871791     0.08000
N2211       N  0.65756136  0.04198709  0.65533956    -0.45800
H2212       H  0.75726864  0.07888792  0.52617055     0.08000
C2213       C  0.81339303  0.43074925  0.55830706     0.43700
C2214       C  0.66700593  0.05948608  0.58332149    -0.05300
Co2215     Co  0.74625971  0.00705223  0.55729661     0.73800
N2216       N  0.80945691  0.07666699  0.58125078    -0.45500
C2217       C  0.67014107  0.44303385  0.68256678     0.44000
N2218       N  0.71946274  0.44055711  0.54357644    -0.45500
Co2219     Co  0.80346876  0.01268788  0.61199447     0.73900
C2220       C  0.83741331  0.46592284  0.64854829    -0.05800
C2221       C  0.68964849  0.04651105  0.69607722    -0.05400
N2222       N  0.69498573  0.46576302  0.58025148    -0.24900
N2223       N  0.79418312  0.05441830  0.69549899    -0.45700
H2224       H  0.70724782  0.45716289  0.71835627     0.08000
C2225       C  0.78834437  0.44706664  0.54186770    -0.05800
Cl2226     Cl  0.74697131  0.00599087  0.61454238    -0.48800
C2227       C  0.79565179  0.09336054  0.55855121     0.43700
H2228       H  0.66658629  0.42816526  0.59870365     0.07900
N2229       N  0.82400077  0.45105276  0.57926232    -0.45500
C2230       C  0.66439079  0.05235839  0.83063742     0.43600
N2231       N  0.70828138  0.03088899  0.84580531     0.02500
C2232       C  0.71630064  0.43765589  0.96519354    -0.05400
H2233       H  0.71781871  0.07234820  0.98935065     0.07900
C2234       C  0.81122882  0.06972162  0.93694264    -0.05800
Co2235     Co  0.69037460  0.99703531  0.90409966     0.74200
N2236       N  0.70706300  0.03488195  0.95854269    -0.25000
Co2237     Co  0.74444240  0.00269283  0.96144558     0.74100
C2238       C  0.79377391  0.08731587  0.96054039     0.43700
N2239       N  0.80348366  0.03769163  0.87063758     0.02100
N2240       N  0.77643489  0.04000687  0.95940431     0.02200
N2241       N  0.68332008  0.43369497  0.92553287    -0.45800
H2242       H  0.63873383  0.04079516  0.87579581     0.07900
N2243       N  0.68661880  0.03284165  0.93610521     0.02500
N2244       N  0.78581131  0.46930483  0.94838535     0.02200
C2245       C  0.81240311  0.42615519  0.94973948     0.43800
N2246       N  0.78427541  0.03560610  0.84679826    -0.24400
C2247       C  0.67034970  0.44580489  0.85453127    -0.05300
N2248       N  0.69463000  0.04448230  0.82154709    -0.45500
N2249       N  0.78704342  0.44151368  0.96193689    -0.45700
C2250       C  0.67507513  0.43633557  0.82308860     0.43600
N2251       N  0.69572571  0.46201191  0.92710180     0.02400
N2252       N  0.79080801  0.47057407  0.83646463    -0.24400
N2253       N  0.68781292  0.02899577  0.86923229    -0.24900
N2254       N  0.81062932  0.47326088  0.85973204     0.02100
H2255       H  0.79895130  0.45410575  0.78992731     0.08000
H2256       H  0.84506276  0.44145082  0.91013840     0.08000
N2257       N  0.71626184  0.46449956  0.94944576    -0.25000
N2258       N  0.79856951  0.04100649  0.93771141    -0.24600
N2259       N  0.71512418  0.46407421  0.83657714     0.02500
C2260       C  0.67968571  0.07945811  0.95336294     0.43900
C2261       C  0.79864400  0.05025088  0.82270620    -0.05800
N2262       N  0.80808369  0.47232202  0.92697400    -0.24600
H2263       H  0.82821439  0.07807636  0.91995378     0.08000
N2264       N  0.67022039  0.05904787  0.93197447    -0.45800
H2265       H  0.79152911  0.04849577  0.79895490     0.08000
C2266       C  0.83912609  0.45067082  0.82535440     0.43700
C2267       C  0.66038509  0.04255231  0.86214110    -0.05300
Co2268     Co  0.74898359  0.00037007  0.84633467     0.73800
N2269       N  0.83012031  0.05229780  0.86410604    -0.45500
C2270       C  0.69522079  0.41719587  0.94936789     0.44000
N2271       N  0.70326051  0.44844860  0.81298425    -0.45500
Co2272     Co  0.80377399  0.00555428  0.90569694     0.73900
C2273       C  0.82665024  0.44679882  0.92696315    -0.05800
C2274       C  0.70325826  0.06289647  0.97171254    -0.05400
N2275       N  0.69518398  0.46343838  0.86045557    -0.24900
N2276       N  0.77276327  0.06726080  0.97313202    -0.45700
H2277       H  0.73244828  0.43091604  0.98284669     0.08000
C2278       C  0.80686890  0.45588624  0.81342750    -0.05800
Cl2279     Cl  0.74699814  0.00156490  0.90378683    -0.48800
C2280       C  0.82929653  0.06087110  0.83454504     0.43700
H2281       H  0.64893818  0.44482985  0.86863621     0.07900
N2282       N  0.83918257  0.46189563  0.85385198    -0.45500
C2283       C  0.54513033  0.19796582  0.66567748     0.43600
N2284       N  0.53267083  0.19822451  0.71435574     0.02500
C2285       C  0.54617829  0.06049463  0.79921846    -0.05400
H2286       H  0.53082384  0.03319603  0.70972250     0.07900
C2287       C  0.90726944  0.11163820  0.71695408    -0.05800
Co2288     Co  0.55301932  0.13917684  0.74429013     0.74200
N2289       N  0.52587424  0.08258112  0.71758100    -0.25000
Co2290     Co  0.99287917  0.08443433  0.75579760     0.74100
C2291       C  0.90771041  0.08005845  0.70636285     0.43700
N2292       N  0.94282977  0.18244545  0.72851354     0.02100
N2293       N  0.95266565  0.08961207  0.72716265     0.02200
N2294       N  0.58309969  0.09697553  0.78891259    -0.45800
H2295       H  0.57164274  0.15156320  0.66996209     0.07900
N2296       N  0.54613806  0.10549880  0.71246910     0.02500
N2297       N  0.95882937  0.08794116  0.79241725     0.02200
C2298       C  0.91685080  0.07662610  0.81942146     0.43800
N2299       N  0.96635133  0.20233007  0.72590893    -0.24400
C2300       C  0.57998368  0.16854491  0.80232475    -0.05300
N2301       N  0.53006071  0.21432188  0.68819208    -0.45500
N2302       N  0.94391564  0.06447109  0.80653891    -0.45700
C2303       C  0.56807049  0.19011321  0.82528205     0.43600
N2304       N  0.55554933  0.10446546  0.77687203     0.02400
N2305       N  0.97258758  0.19975883  0.79588907    -0.24400
N2306       N  0.54976808  0.17277372  0.71028106    -0.24900
N2307       N  0.94844640  0.18056863  0.79607444     0.02100
H2308       H  0.99161017  0.22788987  0.83263567     0.08000
H2309       H  0.89599802  0.12514321  0.81347911     0.08000
N2310       N  0.53308279  0.08350643  0.78188268    -0.25000
N2311       N  0.93525299  0.11522999  0.73001049    -0.24600
N2312       N  0.54026597  0.19460944  0.78413108     0.02500
C2313       C  0.56961476  0.06641453  0.69180729     0.43900
C2314       C  0.96423838  0.21598354  0.69785369    -0.05800
N2315       N  0.94170144  0.11383336  0.79448257    -0.24600
H2316       H  0.88734118  0.12756171  0.71935543     0.08000
N2317       N  0.57169898  0.09679144  0.69697539    -0.45800
H2318       H  0.98072996  0.23175375  0.68748700     0.08000
C2319       C  0.94785619  0.19838519  0.84183514     0.43700
C2320       C  0.55893127  0.17078613  0.68048889    -0.05300
Co2321     Co  0.00403048  0.19976455  0.75751658     0.73800
N2322       N  0.92526391  0.18117818  0.70358916    -0.45500
C2323       C  0.57963285  0.06983135  0.80346553     0.44000
N2324       N  0.54345450  0.20568154  0.81252142    -0.45500
Co2325     Co  0.94221909  0.14859527  0.76223001     0.73900
C2326       C  0.91604521  0.10924666  0.81202361    -0.05800
C2327       C  0.53881346  0.05661578  0.70498618    -0.05400
N2328       N  0.56048874  0.17179285  0.77842128    -0.29700
N2329       N  0.93651023  0.06735163  0.71323727    -0.45700
H2330       H  0.53530346  0.03832981  0.80440281     0.08000
C2331       C  0.97382831  0.21253536  0.82425845    -0.05800
Cl2332     Cl  0.99844971  0.14235627  0.75599721    -0.48800
C2333       C  0.93760367  0.20125085  0.68293818     0.43700
H2334       H  0.59731220  0.15018556  0.80540031     0.07900
N2335       N  0.93289869  0.17944316  0.82268623    -0.45500
C2336       C  0.58243818  0.42699206  0.68958120     0.43600
N2337       N  0.53938353  0.41120522  0.71241178     0.02500
C2338       C  0.54076670  0.27918917  0.79995342    -0.05400
H2339       H  0.50861547  0.27086083  0.66489596     0.07900
C2340       C  0.92636829  0.33221012  0.69435885    -0.05800
Co2341     Co  0.55875800  0.34885714  0.73619450     0.74200
N2342       N  0.53003842  0.29743443  0.70110307    -0.25000
Co2343     Co  0.99643951  0.29893392  0.75165249     0.74100
C2344       C  0.93857903  0.30728609  0.67494821     0.43700
N2345       N  0.94375761  0.39594688  0.72498338     0.02100
N2346       N  0.95982327  0.30384345  0.71977422     0.02200
N2347       N  0.57823996  0.31526260  0.79386489    -0.45800
H2348       H  0.60381309  0.37849919  0.68905308     0.07900
N2349       N  0.55188242  0.31892941  0.69940930     0.02500
N2350       N  0.96421149  0.30208340  0.78939448     0.02200
C2351       C  0.94703858  0.30248988  0.83669556     0.43800
N2352       N  0.96591688  0.41755720  0.72234410    -0.24400
C2353       C  0.59391876  0.38480982  0.78335647    -0.05300
N2354       N  0.55468546  0.43664026  0.70300058    -0.45500
N2355       N  0.96510211  0.28647653  0.81600894    -0.45700
C2356       C  0.59123675  0.41466918  0.79799773     0.43600
N2357       N  0.56091776  0.31316684  0.76873799     0.02400
N2358       N  0.97047567  0.41689474  0.78694490    -0.24400
N2359       N  0.55689572  0.38603216  0.70685146    -0.24900
N2360       N  0.94943349  0.39424289  0.78961320     0.02100
H2361       H  0.96685145  0.46546450  0.79938284     0.08000
H2362       H  0.91926630  0.34767643  0.82926350     0.08000
N2363       N  0.53810198  0.29257633  0.77167684    -0.25000
N2364       N  0.94114938  0.32852897  0.72146994    -0.24600
N2365       N  0.54649557  0.40428130  0.77693709     0.02500
C2366       C  0.54556857  0.30641085  0.65079921     0.43900
C2367       C  0.95287491  0.44192462  0.70695334    -0.05800
N2368       N  0.94588668  0.32695175  0.79137297    -0.24600
H2369       H  0.91145849  0.35162079  0.68776993     0.08000
N2370       N  0.56131472  0.32484146  0.67055852    -0.45800
H2371       H  0.96332882  0.46471719  0.70452748     0.08000
C2372       C  0.92647947  0.43195609  0.81312772     0.43700
C2373       C  0.58317579  0.39357643  0.69125417    -0.05300
Co2374     Co  0.50546785  0.41032946  0.74934008     0.73800
N2375       N  0.91633294  0.40425862  0.71316806    -0.45500
C2376       C  0.56666735  0.29515230  0.81505109     0.44000
N2377       N  0.56128142  0.42575567  0.79325923    -0.45500
Co2378     Co  0.94490758  0.36074866  0.75691138     0.73900
C2379       C  0.93370076  0.32886558  0.82017974    -0.05800
C2380       C  0.52657753  0.28671277  0.67208072    -0.05400
N2381       N  0.56573770  0.38049682  0.77065984    -0.24900
N2382       N  0.95873961  0.29040226  0.69233662    -0.45700
H2383       H  0.52492912  0.26277040  0.81043723     0.08000
C2384       C  0.95793341  0.44201681  0.80154047    -0.05800
Cl2385     Cl  0.00126286  0.35692901  0.75181205    -0.48800
C2386       C  0.91973841  0.43270626  0.70128818     0.43700
H2387       H  0.61486473  0.37059869  0.77912640     0.07900
N2388       N  0.92357187  0.40235001  0.80497103    -0.45500
C2389       C  0.86893034  0.44126278  0.80963098    -0.15300
C2390       C  0.89763744  0.45045484  0.82020702    -0.30500
H2391       H  0.86748713  0.42408443  0.79148311     0.13700
H2392       H  0.89929561  0.46903507  0.83691290     0.14300
C2393       C  0.64887658  0.42505861  0.80385103    -0.15300
C2394       C  0.61800217  0.43176152  0.81125201    -0.30500
H2395       H  0.65483109  0.40976763  0.78478071     0.13700
H2396       H  0.61218408  0.44914633  0.82850843     0.14300
C2397       C  0.85874037  0.06930342  0.81767059    -0.15300
C2398       C  0.88766346  0.05938014  0.82760954    -0.30500
H2399       H  0.85690684  0.08612592  0.79898418     0.13700
H2400       H  0.88944451  0.04094495  0.84475166     0.14300
C2401       C  0.63753412  0.06183906  0.81080755    -0.15300
C2402       C  0.60695569  0.05369740  0.81780778    -0.30500
H2403       H  0.64261403  0.07734896  0.79152314     0.13700
H2404       H  0.60187261  0.03646744  0.83555672     0.14300
C2405       C  0.86185133  0.44247289  0.69745284    -0.15300
C2406       C  0.89220151  0.45075884  0.68996994    -0.30500
H2407       H  0.85724439  0.42519590  0.71531772     0.13700
H2408       H  0.89682433  0.46963277  0.67382296     0.14300
C2409       C  0.61186068  0.44543927  0.68710176    -0.15300
C2410       C  0.63999088  0.43466018  0.69840015    -0.30500
H2411       H  0.61148806  0.46532288  0.67151553     0.13700
H2412       H  0.64048448  0.41591785  0.71529825     0.14300
C2413       C  0.84957051  0.07378745  0.70482995    -0.15300
C2414       C  0.87912712  0.06371211  0.69621893    -0.30500
H2415       H  0.84627672  0.08978541  0.72388005     0.13700
H2416       H  0.88222524  0.04583525  0.67884433     0.14300
C2417       C  0.62681106  0.05869554  0.70005022    -0.15300
C2418       C  0.59915884  0.04815141  0.68815596    -0.30500
H2419       H  0.62659072  0.07621309  0.71797081     0.13700
H2420       H  0.59929404  0.02945462  0.67145524     0.14300
C2421       C  0.79512675  0.37660887  0.55074531    -0.15300
C2422       C  0.81700224  0.39637559  0.56159872    -0.30500
H2423       H  0.77479357  0.38573228  0.53851860     0.13700
H2424       H  0.83726239  0.38729765  0.57410193     0.14300
C2425       C  0.79402417  0.12764250  0.55522570    -0.15300
C2426       C  0.80795625  0.14819904  0.57376506    -0.30500
H2427       H  0.77956425  0.13623210  0.53657342     0.13700
H2428       H  0.82233702  0.13997418  0.59276182     0.14300
C2429       C  0.79505236  0.37146298  0.95862942    -0.15300
C2430       C  0.81745712  0.39199841  0.94987793    -0.30500
H2431       H  0.77257787  0.37976139  0.96831613     0.13700
H2432       H  0.83986692  0.38355759  0.94025716     0.14300
C2433       C  0.80805476  0.14207369  0.94765906    -0.15300
C2434       C  0.79217067  0.12163004  0.96557296    -0.30500
H2435       H  0.82294714  0.13333928  0.92891392     0.13700
H2436       H  0.77683180  0.13029403  0.98392136     0.14300
C2437       C  0.95056448  0.31396064  0.89336289    -0.15300
C2438       C  0.94228035  0.29479641  0.86999537    -0.30500
H2439       H  0.96569181  0.33381930  0.88870738     0.13700
H2440       H  0.92807966  0.27439908  0.87523007     0.14300
C2441       C  0.93307222  0.30268517  0.64159465    -0.15300
C2442       C  0.94263440  0.32286936  0.61907593    -0.30500
H2443       H  0.91827651  0.28310910  0.63567720     0.13700
H2444       H  0.95835265  0.34190400  0.62442212     0.14300
C2445       C  0.95375273  0.20057618  0.89937685    -0.15300
C2446       C  0.93638077  0.20307126  0.87346728    -0.30500
H2447       H  0.97929216  0.19710727  0.89824751     0.13700
H2448       H  0.91067409  0.20509795  0.87519692     0.14300
C2449       C  0.94628484  0.20960634  0.62543023    -0.15300
C2450       C  0.92851848  0.20058744  0.65022533    -0.30500
H2451       H  0.97056236  0.21739866  0.62801921     0.13700
H2452       H  0.90519474  0.19083717  0.64653304     0.14300
C2453       C  0.69662374  0.38293684  0.95296909    -0.15300
C2454       C  0.69109328  0.36249010  0.93039381    -0.30500
H2455       H  0.70508245  0.37439227  0.97498318     0.13700
H2456       H  0.68228405  0.37065547  0.90835963     0.14300
C2457       C  0.67801445  0.11371911  0.94821702    -0.15300
C2458       C  0.70198425  0.13258262  0.95613807    -0.30500
H2459       H  0.65777948  0.12323910  0.93598641     0.13700
H2460       H  0.72233024  0.12284688  0.96790587     0.14300
C2461       C  0.68448029  0.36558211  0.56953500    -0.15300
C2462       C  0.70143139  0.38573367  0.55217192    -0.30500
H2463       H  0.66855477  0.37448795  0.58737486     0.13700
H2464       H  0.71738047  0.37692484  0.53432941     0.14300
C2465       C  0.69820261  0.13612383  0.55504802    -0.15300
C2466       C  0.67538789  0.11535193  0.56236900    -0.30500
H2467       H  0.72066393  0.12795191  0.54529688     0.13700
H2468       H  0.65301082  0.12350311  0.57229694     0.14300
C2469       C  0.57547481  0.29737282  0.84820675    -0.15300
C2470       C  0.55728964  0.29163684  0.87401544    -0.30500
H2471       H  0.59898853  0.30688370  0.85115583     0.13700
H2472       H  0.53277995  0.28434491  0.87202217     0.14300
C2473       C  0.52773201  0.32261423  0.62565532    -0.15300
C2474       C  0.52953943  0.32147659  0.59428945    -0.30500
H2475       H  0.50850603  0.33721830  0.63461876     0.13700
H2476       H  0.51116119  0.33451961  0.58236755     0.14300
C2477       C  0.55894925  0.19595145  0.88334643    -0.15300
C2478       C  0.57667191  0.18764768  0.85826382    -0.30500
H2479       H  0.53550331  0.20600197  0.88052077     0.13700
H2480       H  0.59929638  0.17598586  0.86180977     0.14300
C2481       C  0.54709047  0.20671682  0.63241555    -0.15300
C2482       C  0.54203880  0.18659715  0.60891832    -0.30500
H2483       H  0.55672931  0.22954306  0.62714513     0.13700
H2484       H  0.53154308  0.16406156  0.61368485     0.14300
C2485       C  0.70270592  0.67293040  0.05505767     0.43600
N2486       N  0.70133452  0.71915624  0.03525917     0.02500
C2487       C  0.55304456  0.79124124  0.04483482    -0.05400
H2488       H  0.53461577  0.70120546  0.04377459     0.07900
C2489       C  0.60979878  0.69628557  0.41904656    -0.05800
Co2490     Co  0.64064001  0.75260306  0.05211812     0.74200
N2491       N  0.58324739  0.71570247  0.03571773    -0.25000
Co2492     Co  0.58253371  0.74527424  0.99576507     0.74100
C2493       C  0.57635884  0.68943845  0.41660737     0.43700
N2494       N  0.68086472  0.71487138  0.45041229     0.02100
N2495       N  0.58507815  0.71135621  0.46071912     0.02200
N2496       N  0.59531545  0.79888885  0.07440692    -0.45800
H2497       H  0.65660011  0.68191855  0.08257519     0.07900
N2498       N  0.60692381  0.71834382  0.05532640     0.02500
N2499       N  0.58014842  0.77588319  0.45726597     0.02200
C2500       C  0.56918502  0.79345267  0.41131821     0.43800
N2501       N  0.70263343  0.71784586  0.47148064    -0.24400
C2502       C  0.67145781  0.81732773  0.06222407    -0.05300
N2503       N  0.71743047  0.69255469  0.03538613    -0.45500
N2504       N  0.55614768  0.78347719  0.43869999    -0.45700
C2505       C  0.69744912  0.83491165  0.04786411     0.43600
N2506       N  0.60365938  0.78437209  0.04895567     0.02400
N2507       N  0.69628400  0.78726078  0.46970393    -0.24400
N2508       N  0.67657051  0.71858560  0.05418295    -0.24900
N2509       N  0.67581742  0.78464112  0.44732877     0.02100
H2510       H  0.72431786  0.82578615  0.48465950     0.08000
H2511       H  0.62102987  0.78891773  0.39637926     0.08000
N2512       N  0.57945768  0.77990195  0.03036576    -0.25000
N2513       N  0.61244270  0.71154331  0.44527306    -0.24600
N2514       N  0.69762620  0.78803412  0.03024562     0.02500
C2515       C  0.57062120  0.69656111  0.08314112     0.43900
C2516       C  0.72022954  0.69156696  0.47167858    -0.05800
N2517       N  0.60751357  0.77806111  0.44206178    -0.24600
H2518       H  0.62696551  0.69861994  0.40037189     0.08000
N2519       N  0.60019273  0.70741739  0.08306842    -0.45800
H2520       H  0.73821643  0.68560985  0.48795338     0.08000
C2521       C  0.69253744  0.83170980  0.44277099     0.43700
C2522       C  0.67574777  0.69046225  0.06807207    -0.05300
Co2523     Co  0.69786167  0.75330409  0.50431673     0.73800
N2524       N  0.68096059  0.68683200  0.43779663    -0.45500
C2525       C  0.56384042  0.80369955  0.07445878     0.44000
N2526       N  0.71239916  0.81507164  0.02850740    -0.45500
Co2527     Co  0.64466351  0.74729291  0.44646270     0.73900
C2528       C  0.60320473  0.79061699  0.41451535    -0.05800
C2529       C  0.55889076  0.70202489  0.05151563    -0.05400
N2530       N  0.67326793  0.78882018  0.04957376    -0.24900
N2531       N  0.56229656  0.69965400  0.44328656    -0.45700
H2532       H  0.52894750  0.78632523  0.03820242     0.08000
C2533       C  0.70868216  0.81591078  0.46815955    -0.05800
Cl2534     Cl  0.64272875  0.74840976  0.99781210    -0.48800
C2535       C  0.70512494  0.67058961  0.45029421     0.43700
H2536       H  0.65266568  0.82548737  0.07747327     0.07900
N2537       N  0.67262178  0.81068119  0.43098421    -0.45500
C2538       C  0.93301952  0.71200272  0.09383439     0.43600
N2539       N  0.92246814  0.73062141  0.04824178     0.02500
C2540       C  0.78517969  0.81826115  0.03016142    -0.05400
H2541       H  0.77814643  0.68431518  0.01900278     0.07900
C2542       C  0.83751268  0.69405305  0.43481606    -0.05800
Co2543     Co  0.85883594  0.76136016  0.05827915     0.74200
N2544       N  0.80648613  0.72232584  0.03459177    -0.25000
Co2545     Co  0.80500141  0.75769548  0.50073371     0.74100
C2546       C  0.81245114  0.67491324  0.44760028     0.43700
N2547       N  0.90431885  0.72404018  0.45599080     0.02100
N2548       N  0.81126104  0.71989667  0.46976949     0.02200
N2549       N  0.82301018  0.82287475  0.06569598    -0.45800
H2550       H  0.88169496  0.71936494  0.10970122     0.07900
N2551       N  0.82687990  0.72444393  0.05711184     0.02500
N2552       N  0.80814190  0.79074192  0.46468194     0.02200
C2553       C  0.80833270  0.83503661  0.44069666     0.43800
N2554       N  0.92829159  0.72874141  0.47477195    -0.24400
C2555       C  0.89556089  0.81214332  0.08526440    -0.05300
N2556       N  0.94625451  0.72137604  0.06634410    -0.45500
N2557       N  0.79368330  0.81835901  0.46330179    -0.45700
C2558       C  0.92902044  0.81900957  0.08664881     0.43600
N2559       N  0.82343647  0.79474702  0.05309853     0.02400
N2560       N  0.92499377  0.79281011  0.46846333    -0.24400
N2561       N  0.89519550  0.72991453  0.06376892    -0.24900
N2562       N  0.90134876  0.79056187  0.44879985     0.02100
H2563       H  0.97381719  0.80683639  0.46017314     0.08000
H2564       H  0.85223300  0.82175688  0.41233440     0.08000
N2565       N  0.80232002  0.79185495  0.03137110    -0.25000
N2566       N  0.83555770  0.72074211  0.45042102    -0.24600
N2567       N  0.91933652  0.79556770  0.04357212     0.02500
C2568       C  0.80969376  0.67730411  0.06079933     0.43900
C2569       C  0.95472705  0.71680438  0.46073042    -0.05800
N2570       N  0.83236069  0.78911296  0.44519894    -0.24600
H2571       H  0.85609234  0.68767592  0.41850768     0.08000
N2572       N  0.82982653  0.69800354  0.07295049    -0.45800
H2573       H  0.97883578  0.72155616  0.46745180     0.08000
C2574       C  0.93763178  0.81232961  0.42085672     0.43700
C2575       C  0.89918430  0.71714717  0.09130116    -0.05300
Co2576     Co  0.92521793  0.76093399  0.00895420     0.73800
N2577       N  0.91261501  0.70834448  0.43131581    -0.45500
C2578       C  0.79917212  0.83893210  0.05230091     0.44000
N2579       N  0.94250375  0.80786041  0.06009177    -0.45500
Co2580     Co  0.86799370  0.75607482  0.45029579     0.73900
C2581       C  0.83336691  0.81525331  0.42817909    -0.05800
C2582       C  0.79374931  0.69377551  0.03573656    -0.05400
N2583       N  0.89218851  0.79615741  0.05946214    -0.24900
N2584       N  0.79709227  0.69224580  0.46941404    -0.45700
H2585       H  0.76824640  0.82433403  0.01290211     0.08000
C2586       C  0.94950663  0.80623755  0.45249834    -0.05800
Cl2587     Cl  0.86553595  0.75855820  0.00409548    -0.48800
C2588       C  0.94396136  0.70329440  0.43144398     0.43700
H2589       H  0.87878696  0.81134918  0.10442624     0.07900
N2590       N  0.90796265  0.80196310  0.42129808    -0.45500
C2591       C  0.68398821  0.58506317  0.05337035     0.43600
N2592       N  0.70897972  0.54080582  0.05280623     0.02500
C2593       C  0.69928479  0.95680307  0.19845199    -0.05400
H2594       H  0.70526316  0.55182297  0.21231318     0.07900
C2595       C  0.83250428  0.55671694  0.14064250    -0.05800
Co2596     Co  0.69144757  0.50464218  0.10859346     0.74200
N2597       N  0.71210706  0.53764545  0.16481355    -0.25000
Co2598     Co  0.75147734  0.50619582  0.16352354     0.74100
C2599       C  0.82903149  0.56646451  0.17220056     0.43700
N2600       N  0.80099032  0.54263791  0.06861075     0.02100
N2601       N  0.78749241  0.54055403  0.16000680     0.02200
N2602       N  0.66622455  0.95565026  0.15831402    -0.45800
H2603       H  0.65315606  0.57066103  0.09445625     0.07900
N2604       N  0.69185339  0.53752461  0.14180995     0.02500
N2605       N  0.78863887  0.97505198  0.16989219     0.02200
C2606       C  0.83266562  0.95186996  0.18153260     0.43800
N2607       N  0.77859263  0.54144189  0.04784677    -0.24400
C2608       C  0.67283174  0.94283430  0.08578246    -0.05300
N2609       N  0.70793970  0.56879333  0.03955577    -0.45500
N2610       N  0.80334293  0.96015712  0.19277057    -0.45700
C2611       C  0.68723551  0.92342302  0.06233954     0.43600
N2612       N  0.69250971  0.97031039  0.15106553     0.02400
N2613       N  0.78058576  0.97195345  0.05879776    -0.24400
N2614       N  0.68808527  0.53875866  0.07551494    -0.24900
N2615       N  0.80368992  0.97427872  0.07871104     0.02100
H2616       H  0.76573140  0.93371873  0.03095472     0.08000
H2617       H  0.85579115  0.96425160  0.13530652     0.08000
N2618       N  0.71289061  0.97154523  0.17396833    -0.25000
N2619       N  0.80656819  0.54031172  0.13543225    -0.24600
N2620       N  0.71053479  0.96813661  0.06224848     0.02500
C2621       C  0.66511026  0.56010262  0.17740877     0.43900
C2622       C  0.77766469  0.56882756  0.03293698    -0.05800
N2623       N  0.80758548  0.97726532  0.14535067    -0.24600
H2624       H  0.85353323  0.55681707  0.12595759     0.08000
N2625       N  0.66441932  0.55068398  0.14841357    -0.45800
H2626       H  0.76001200  0.57619635  0.01684718     0.08000
C2627       C  0.80937392  0.92785317  0.06088801     0.43700
C2628       C  0.67036891  0.56478585  0.07666161    -0.05300
Co2629     Co  0.74498752  0.50608968  0.04898618     0.73800
N2630       N  0.81417052  0.57068119  0.06997479    -0.45500
C2631       C  0.66798687  0.94670796  0.18762395     0.44000
N2632       N  0.71069539  0.94040365  0.04870421    -0.45500
Co2633     Co  0.80524249  0.50728066  0.10185484     0.73900
C2634       C  0.83503641  0.96281078  0.15027830    -0.05800
C2635       C  0.69709976  0.55195315  0.18881657    -0.05400
N2636       N  0.68931289  0.96927599  0.08470852    -0.24900
N2637       N  0.80068640  0.55570094  0.18311972    -0.45700
H2638       H  0.70740266  0.95815845  0.22191041     0.08000
C2639       C  0.78273943  0.94362044  0.04602368    -0.05800
Cl2640     Cl  0.74836853  0.50599426  0.10595246    -0.48800
C2641       C  0.80061661  0.58834411  0.04777267     0.43700
H2642       H  0.65538989  0.93652410  0.10321175     0.07900
N2643       N  0.82110328  0.94845142  0.08088696    -0.45500
C2644       C  0.66724499  0.55204694  0.32428154     0.43600
N2645       N  0.71015328  0.53021488  0.34070603     0.02500
C2646       C  0.71429900  0.93980320  0.47544404    -0.05400
H2647       H  0.72216646  0.57448178  0.48389747     0.07900
C2648       C  0.81406411  0.56845612  0.43162949    -0.05800
Co2649     Co  0.69097317  0.49877906  0.39973485     0.74200
N2650       N  0.70996333  0.53717817  0.45334588    -0.25000
Co2651     Co  0.74601554  0.50361380  0.45678276     0.74100
C2652       C  0.79801438  0.58601307  0.45627663     0.43700
N2653       N  0.80499875  0.53535992  0.36494937     0.02100
N2654       N  0.77935058  0.53934330  0.45474966     0.02200
N2655       N  0.68092430  0.93716531  0.43596755    -0.45800
H2656       H  0.64067246  0.54303925  0.36953669     0.07900
N2657       N  0.68941660  0.53565892  0.43090108     0.02500
N2658       N  0.78387633  0.96950362  0.45979434     0.02200
C2659       C  0.80385054  0.92285602  0.45994230     0.43800
N2660       N  0.78554996  0.53312758  0.34131351    -0.24400
C2661       C  0.66722067  0.95011019  0.36556449    -0.05300
N2662       N  0.69720011  0.54303783  0.31579253    -0.45500
N2663       N  0.78259992  0.94201014  0.47359792    -0.45700
C2664       C  0.67153357  0.94078474  0.33403949     0.43600
N2665       N  0.69347879  0.96534774  0.43824797     0.02400
N2666       N  0.78834985  0.97001609  0.34722980    -0.24400
N2667       N  0.68953203  0.52984834  0.36406622    -0.24900
N2668       N  0.80879272  0.97174407  0.37006158     0.02100
H2669       H  0.79409856  0.95216022  0.30095469     0.08000
H2670       H  0.83556348  0.93372772  0.41796647     0.08000
N2671       N  0.71418399  0.96717374  0.46048452    -0.25000
N2672       N  0.80073725  0.54003066  0.43236152    -0.24600
N2673       N  0.71278726  0.96661780  0.34774999     0.02500
C2674       C  0.68477418  0.58280484  0.44741485     0.43900
C2675       C  0.79987651  0.54713877  0.31683570    -0.05800
N2676       N  0.80510875  0.96967831  0.43722890    -0.24600
H2677       H  0.83088132  0.57660525  0.41437427     0.08000
N2678       N  0.67433816  0.56255291  0.42628005    -0.45800
H2679       H  0.79239342  0.54520982  0.29321075     0.08000
C2680       C  0.83495268  0.94685804  0.33542974     0.43700
C2681       C  0.66258867  0.54384575  0.35618126    -0.05300
Co2682     Co  0.74945278  0.49869564  0.34187717     0.73800
N2683       N  0.83185680  0.54938275  0.35789306    -0.45500
C2684       C  0.69292008  0.91994374  0.45918073     0.44000
N2685       N  0.70024703  0.95172884  0.32404906    -0.45500
Co2686     Co  0.80469879  0.50388871  0.40061460     0.73900
C2687       C  0.81932521  0.94147464  0.43588894    -0.05800
C2688       C  0.70746563  0.56552129  0.46610301    -0.05400
N2689       N  0.69286190  0.96657536  0.37165597    -0.24900
N2690       N  0.77711428  0.56622405  0.46939156    -0.45700
H2691       H  0.73112491  0.93219103  0.49204360     0.08000
C2692       C  0.80281875  0.95398478  0.32416723    -0.05800
Cl2693     Cl  0.74784561  0.50124773  0.39916098    -0.48800
C2694       C  0.83083893  0.55746198  0.32817985     0.43700
H2695       H  0.64571183  0.95004814  0.37956613     0.07900
N2696       N  0.83654370  0.95865425  0.36370183    -0.45500
C2697       C  0.55444819  0.70560245  0.16901953     0.43600
N2698       N  0.53870109  0.70269115  0.21670282     0.02500
C2699       C  0.55032173  0.55844877  0.29051698    -0.05400
H2700       H  0.53809003  0.53918353  0.20039460     0.07900
C2701       C  0.91107488  0.61489084  0.21124164    -0.05800
Co2702     Co  0.55846374  0.64178384  0.24314404     0.74200
N2703       N  0.53204753  0.58791328  0.21109669    -0.25000
Co2704     Co  0.99603236  0.58671137  0.25125372     0.74100
C2705       C  0.91332420  0.58458524  0.19749915     0.43700
N2706       N  0.94434653  0.68540081  0.22833042     0.02100
N2707       N  0.95662195  0.59325397  0.22168891     0.02200
N2708       N  0.58725191  0.59578410  0.28436637    -0.45800
H2709       H  0.58180952  0.65976795  0.17215899     0.07900
N2710       N  0.55230230  0.61119130  0.20834850     0.02500
N2711       N  0.96062360  0.58778806  0.28716407     0.02200
C2712       C  0.91801726  0.57450471  0.31238830     0.43800
N2713       N  0.96803745  0.70511309  0.22620289    -0.24400
C2714       C  0.58365151  0.66607287  0.30400744    -0.05300
N2715       N  0.53700131  0.72016783  0.19127605    -0.45500
N2716       N  0.94562180  0.56339872  0.29959332    -0.45700
C2717       C  0.57156612  0.68653542  0.32777477     0.43600
N2718       N  0.55997361  0.60440863  0.27262966     0.02400
N2719       N  0.97369055  0.69974553  0.29678931    -0.24400
N2720       N  0.55669579  0.67793950  0.21209767    -0.24900
N2721       N  0.94988911  0.68013401  0.29614878     0.02100
H2722       H  0.99342056  0.72512833  0.33528412     0.08000
H2723       H  0.89665542  0.62303326  0.30853854     0.08000
N2724       N  0.53755740  0.58304502  0.27521012    -0.25000
N2725       N  0.93822798  0.61805375  0.22600970    -0.24600
N2726       N  0.54530617  0.69443576  0.28622934     0.02500
C2727       C  0.57711787  0.57380204  0.18614216     0.43900
C2728       C  0.96645103  0.71879559  0.19804400    -0.05800
N2729       N  0.94314203  0.61334739  0.29036577    -0.24600
H2730       H  0.89066063  0.63021691  0.21361273     0.08000
N2731       N  0.57852384  0.60375196  0.19326083    -0.45800
H2732       H  0.98335089  0.73421383  0.18773967     0.08000
C2733       C  0.95054239  0.69421446  0.34349297     0.43700
C2734       C  0.56800444  0.67805543  0.18303159    -0.05300
Co2735     Co  0.00537376  0.70195274  0.25831304     0.73800
N2736       N  0.92698808  0.68464557  0.20324226    -0.45500
C2737       C  0.58358714  0.56737462  0.29613867     0.44000
N2738       N  0.54790149  0.70373349  0.31530309    -0.45500
Co2739     Co  0.94401947  0.64987626  0.26029233     0.73900
C2740       C  0.91693472  0.60744456  0.30673348    -0.05800
C2741       C  0.54585872  0.56293685  0.19734496    -0.05400
N2742       N  0.56509900  0.67143330  0.27978015    -0.29700
N2743       N  0.94210313  0.57208153  0.20476959    -0.45700
H2744       H  0.53942377  0.53590177  0.29336408     0.08000
C2745       C  0.97550058  0.71036788  0.32609826    -0.05800
Cl2746     Cl  0.00060424  0.64461192  0.25436885    -0.48800
C2747       C  0.93965848  0.70467076  0.18276127     0.43700
H2748       H  0.60044992  0.64714214  0.30644628     0.07900
N2749       N  0.93559137  0.67636185  0.32321309    -0.45500
C2750       C  0.58083921  0.93302487  0.19759782     0.43600
N2751       N  0.53793909  0.91780344  0.22082864     0.02500
C2752       C  0.53899409  0.78308621  0.30581135    -0.05400
H2753       H  0.51143686  0.77896917  0.16987639     0.07900
C2754       C  0.92694308  0.82887439  0.19185358    -0.05800
Co2755     Co  0.55685746  0.85583496  0.24596997     0.74200
N2756       N  0.52917615  0.80540410  0.20862417    -0.25000
Co2757     Co  0.99806365  0.79828061  0.24930351     0.74100
C2758       C  0.94001352  0.80405178  0.17277041     0.43700
N2759       N  0.94267876  0.89391910  0.22363743     0.02100
N2760       N  0.96182923  0.80235491  0.21726998     0.02200
N2761       N  0.57538053  0.82069846  0.30249898    -0.45800
H2762       H  0.60246486  0.88459619  0.19848570     0.07900
N2763       N  0.55209969  0.82593641  0.20972735     0.02500
N2764       N  0.96522257  0.79956636  0.28660553     0.02200
C2765       C  0.94972289  0.80002268  0.33439925     0.43800
N2766       N  0.96383913  0.91661452  0.22350981    -0.24400
C2767       C  0.58992648  0.89134461  0.29435638    -0.05300
N2768       N  0.55301861  0.94305599  0.21061695    -0.45500
N2769       N  0.96786821  0.78461678  0.31341740    -0.45700
C2770       C  0.58730719  0.92152869  0.30826474     0.43600
N2771       N  0.55810861  0.81986075  0.27739719     0.02400
N2772       N  0.96589058  0.91366879  0.28858718    -0.24400
N2773       N  0.55569395  0.89265210  0.21629818    -0.24900
N2774       N  0.94471313  0.89107560  0.28832895     0.02100
H2775       H  0.96253541  0.96040121  0.30673969     0.08000
H2776       H  0.91977204  0.84381631  0.32740764     0.08000
N2777       N  0.53593269  0.79850589  0.27865982    -0.25000
N2778       N  0.94210511  0.82621320  0.21884689    -0.24600
N2779       N  0.54321552  0.91149336  0.28573379     0.02500
C2780       C  0.55341612  0.81162938  0.16249476     0.43900
C2781       C  0.95057202  0.94127748  0.20884846    -0.05800
N2782       N  0.94562440  0.82355866  0.28874895    -0.24600
H2783       H  0.91091599  0.84745036  0.18531717     0.08000
N2784       N  0.56708797  0.83005404  0.18308477    -0.45800
H2785       H  0.96003665  0.96458355  0.20835512     0.08000
C2786       C  0.92134103  0.92615700  0.31526428     0.43700
C2787       C  0.58184853  0.89973275  0.20043565    -0.05300
Co2788     Co  0.50310323  0.91695162  0.25668738     0.73800
N2789       N  0.91564854  0.90177442  0.21075351    -0.45500
C2790       C  0.56436840  0.79880852  0.32198223     0.44000
N2791       N  0.55777118  0.93309105  0.30216215    -0.45500
Co2792     Co  0.94352990  0.85800212  0.25480977     0.73900
C2793       C  0.93435535  0.82533523  0.31792763    -0.05800
C2794       C  0.52843938  0.79468178  0.17927512    -0.05400
N2795       N  0.56227597  0.88733605  0.28063571    -0.24900
N2796       N  0.96116245  0.78849918  0.19008636    -0.45700
H2797       H  0.52381200  0.76519822  0.31477192     0.08000
C2798       C  0.95319203  0.93708775  0.30566176    -0.05800
Cl2799     Cl  0.00022837  0.85635470  0.25169731    -0.48800
C2800       C  0.91837016  0.93107308  0.20086016     0.43700
H2801       H  0.61076379  0.87676167  0.29100642     0.07900
N2802       N  0.91826338  0.89782324  0.30350606    -0.45500
C2803       C  0.86349464  0.93549000  0.31863534    -0.15300
C2804       C  0.89329130  0.94349846  0.32713073    -0.30500
H2805       H  0.86007545  0.91909443  0.30008200     0.13700
H2806       H  0.89686678  0.96150407  0.34411754     0.14300
C2807       C  0.64500842  0.93065275  0.31462050    -0.15300
C2808       C  0.61425510  0.93824450  0.32175558    -0.30500
H2809       H  0.65063899  0.91533993  0.29548666     0.13700
H2810       H  0.60875411  0.95566251  0.33907334     0.14300
C2811       C  0.86000389  0.56620471  0.31091905    -0.15300
C2812       C  0.88918757  0.55649152  0.32033428    -0.30500
H2813       H  0.85778141  0.58335073  0.29256596     0.13700
H2814       H  0.89139268  0.53783052  0.33718677     0.14300
C2815       C  0.64092943  0.55990974  0.30353196    -0.15300
C2816       C  0.61066650  0.55052635  0.30972797    -0.30500
H2817       H  0.64590642  0.57601013  0.28469465     0.13700
H2818       H  0.60574560  0.53278708  0.32703310     0.14300
C2819       C  0.86035212  0.94052612  0.19902805    -0.15300
C2820       C  0.89039307  0.94926271  0.19095327    -0.30500
H2821       H  0.85637511  0.92283349  0.21662449     0.13700
H2822       H  0.89438376  0.96857583  0.17515563     0.14300
C2823       C  0.61020656  0.95127191  0.19448445    -0.15300
C2824       C  0.63841508  0.93984213  0.20489259    -0.30500
H2825       H  0.60971952  0.97088257  0.17858822     0.13700
H2826       H  0.63909044  0.92140254  0.22210801     0.14300
C2827       C  0.85580715  0.57657914  0.19105334    -0.15300
C2828       C  0.88628204  0.56838799  0.18384827    -0.30500
H2829       H  0.85051427  0.59203211  0.21016403     0.13700
H2830       H  0.89143851  0.55080976  0.16659522     0.14300
C2831       C  0.63482971  0.56707643  0.19356272    -0.15300
C2832       C  0.60704765  0.55613329  0.18211818    -0.30500
H2833       H  0.63475636  0.58488776  0.21118984     0.13700
H2834       H  0.60715087  0.53703889  0.16585882     0.14300
C2835       C  0.79495902  0.87316546  0.05148364    -0.15300
C2836       C  0.81538953  0.89372319  0.06312424    -0.30500
H2837       H  0.77458205  0.88173334  0.03910444     0.13700
H2838       H  0.83611148  0.88547048  0.07545889     0.14300
C2839       C  0.79987656  0.62286329  0.04531271    -0.15300
C2840       C  0.81267819  0.64286743  0.06529075    -0.30500
H2841       H  0.78628519  0.63219523  0.02640346     0.13700
H2842       H  0.82622408  0.63399642  0.08458751     0.14300
C2843       C  0.80951166  0.86951447  0.43858754    -0.15300
C2844       C  0.80080858  0.88843658  0.46188516    -0.30500
H2845       H  0.82042301  0.87939361  0.41794489     0.13700
H2846       H  0.78985544  0.87859465  0.48251599     0.14300
C2847       C  0.81084010  0.64076425  0.44236345    -0.15300
C2848       C  0.79699830  0.62026763  0.46173096    -0.30500
H2849       H  0.82379919  0.63201896  0.42234774     0.13700
H2850       H  0.78391787  0.62878464  0.48169526     0.14300
C2851       C  0.95427550  0.81479636  0.39030457    -0.15300
C2852       C  0.94811161  0.79344524  0.36813776    -0.30500
H2853       H  0.96564863  0.83658463  0.38414047     0.13700
H2854       H  0.93762344  0.77136951  0.37488909     0.14300
C2855       C  0.93506141  0.79897093  0.13953592    -0.15300
C2856       C  0.94468346  0.81918829  0.11716272    -0.30500
H2857       H  0.92014280  0.77946806  0.13364841     0.13700
H2858       H  0.96028480  0.83828002  0.12261334     0.14300
C2859       C  0.96034552  0.70189866  0.40079394    -0.15300
C2860       C  0.94310944  0.69180450  0.37680987    -0.30500
H2861       H  0.98336099  0.71251644  0.39725774     0.13700
H2862       H  0.92048037  0.68065993  0.38179577     0.14300
C2863       C  0.94843967  0.71179171  0.12473754    -0.15300
C2864       C  0.93060064  0.70394796  0.14994583    -0.30500
H2865       H  0.97279753  0.71945797  0.12702789     0.13700
H2866       H  0.90722676  0.69423393  0.14660291     0.14300
C2867       C  0.69478984  0.88562411  0.46128550    -0.15300
C2868       C  0.68822359  0.86585566  0.43844385    -0.30500
H2869       H  0.70423570  0.87634317  0.48247404     0.13700
H2870       H  0.67842790  0.87459084  0.41703264     0.14300
C2871       C  0.68337877  0.61719598  0.44292778    -0.15300
C2872       C  0.70625374  0.63614822  0.45331013    -0.30500
H2873       H  0.66387056  0.62691007  0.42977717     0.13700
H2874       H  0.72593033  0.62633270  0.46607649     0.14300
C2875       C  0.70231321  0.86918203  0.04678614    -0.15300
C2876       C  0.68276783  0.88919061  0.06148478    -0.30500
H2877       H  0.72188328  0.87814872  0.03298992     0.13700
H2878       H  0.66302826  0.88008530  0.07509303     0.14300
C2879       C  0.70591281  0.63865194  0.05161255    -0.15300
C2880       C  0.68103087  0.61941819  0.05502951    -0.30500
H2881       H  0.72888339  0.62924797  0.04449050     0.13700
H2882       H  0.65807576  0.62884034  0.06222391     0.14300
C2883       C  0.57260938  0.79980326  0.35499603    -0.15300
C2884       C  0.55454657  0.79182363  0.38004690    -0.30500
H2885       H  0.59531319  0.81078940  0.35859976     0.13700
H2886       H  0.53062907  0.78305804  0.37745777     0.14300
C2887       C  0.56360007  0.81246173  0.12979270    -0.15300
C2888       C  0.54668543  0.80481588  0.10476856    -0.30500
H2889       H  0.58754680  0.82123924  0.12627735     0.13700
H2890       H  0.52224030  0.79724986  0.10694746     0.14300
C2891       C  0.56156630  0.69049863  0.38554372    -0.15300
C2892       C  0.57948156  0.68237986  0.36064929    -0.30500
H2893       H  0.53814282  0.70060327  0.38268868     0.13700
H2894       H  0.60204618  0.67057565  0.36433864     0.14300
C2895       C  0.55630142  0.71397445  0.13572086    -0.15300
C2896       C  0.55329987  0.69254371  0.11304262    -0.30500
H2897       H  0.56463307  0.73716070  0.12990734     0.13700
H2898       H  0.54403651  0.66964436  0.11855464     0.14300
C2899       C  0.69674361  0.67072825  0.55577013     0.43600
N2900       N  0.69606531  0.71823758  0.53856814     0.02500
C2901       C  0.54809890  0.79082720  0.54540708    -0.05400
H2902       H  0.52865603  0.70108249  0.54213545     0.07900
C2903       C  0.60936246  0.69486622  0.91831151    -0.05800
Co2904     Co  0.63477130  0.74973507  0.55481334     0.74200
N2905       N  0.57787012  0.71420833  0.53510970    -0.25000
Co2906     Co  0.57858751  0.74490051  0.49605687     0.74100
C2907       C  0.57551484  0.68990183  0.91651213     0.43700
N2908       N  0.68194346  0.71131738  0.94773754     0.02100
N2909       N  0.58660413  0.71084514  0.96073026     0.02200
N2910       N  0.58991065  0.79699174  0.57591453    -0.45800
H2911       H  0.64987361  0.67823115  0.58237253     0.07900
N2912       N  0.60129529  0.71539823  0.55508938     0.02500
N2913       N  0.58327258  0.77537659  0.95648861     0.02200
C2914       C  0.57108185  0.79359610  0.91123723     0.43800
N2915       N  0.70449973  0.71412059  0.96808494    -0.24400
C2916       C  0.66458311  0.81105645  0.57423495    -0.05300
N2917       N  0.71208642  0.69150664  0.53758556    -0.45500
N2918       N  0.55877572  0.78419637  0.93910340    -0.45700
C2919       C  0.68894617  0.83164330  0.56242726     0.43600
N2920       N  0.59820182  0.78192258  0.55088291     0.02400
N2921       N  0.70061320  0.78391105  0.96332483    -0.24400
N2922       N  0.67069712  0.71628626  0.55661706    -0.24900
N2923       N  0.67834008  0.78176741  0.94262647     0.02100
H2924       H  0.73100412  0.82185446  0.97579125     0.08000
H2925       H  0.62190031  0.78651743  0.89385508     0.08000
N2926       N  0.57442721  0.77850818  0.53155400    -0.25000
N2927       N  0.61350911  0.70973600  0.94459138    -0.24600
N2928       N  0.69093161  0.78846741  0.53734456     0.02500
C2929       C  0.56399310  0.69367160  0.58174266     0.43900
C2930       C  0.72079286  0.68702728  0.96896833    -0.05800
N2931       N  0.60997713  0.77619285  0.94009118    -0.24600
H2932       H  0.62605555  0.69677144  0.89918923     0.08000
N2933       N  0.59388757  0.70352981  0.58227776    -0.45800
H2934       H  0.73907515  0.68083364  0.98487994     0.08000
C2935       C  0.69501564  0.82902920  0.93773806     0.43700
C2936       C  0.66949812  0.68750558  0.56899776    -0.05300
Co2937     Co  0.70244342  0.75137795  0.99921557     0.73800
N2938       N  0.68034740  0.68280835  0.93629598    -0.45500
C2939       C  0.55875015  0.80307198  0.57525194     0.44000
N2940       N  0.70445888  0.81629236  0.53933619    -0.45500
Co2941     Co  0.64648206  0.74476636  0.94390575     0.73900
C2942       C  0.60501902  0.78886681  0.91276874    -0.05800
C2943       C  0.55284729  0.70082091  0.55018785    -0.05400
N2944       N  0.66694834  0.78555754  0.55684892    -0.24900
N2945       N  0.56276564  0.70059020  0.94364650    -0.45700
H2946       H  0.52399800  0.78716701  0.53802392     0.08000
C2947       C  0.71354041  0.81234948  0.96085048    -0.05800
Cl2948     Cl  0.63837802  0.74887369  0.50044363    -0.48800
C2949       C  0.70411678  0.66600753  0.94877015     0.43700
H2950       H  0.64600935  0.81593348  0.59105179     0.07900
N2951       N  0.67395142  0.80827022  0.92724506    -0.45500
C2952       C  0.93215971  0.71672286  0.59523948     0.43600
N2953       N  0.92179473  0.73413372  0.54906959     0.02500
C2954       C  0.78399036  0.82170591  0.53040732    -0.05400
H2955       H  0.77573109  0.68767176  0.52314477     0.07900
C2956       C  0.83823843  0.69459346  0.93149361    -0.05800
Co2957     Co  0.85794735  0.76508695  0.55847468     0.74200
N2958       N  0.80519705  0.72553292  0.53692343    -0.25000
Co2959     Co  0.80631050  0.75585294  0.99940443     0.74100
C2960       C  0.81292450  0.67527744  0.94357141     0.43700
N2961       N  0.90495746  0.72275339  0.95515892     0.02100
N2962       N  0.81218002  0.71943200  0.96718722     0.02200
N2963       N  0.82237410  0.82643503  0.56537373    -0.45800
H2964       H  0.88082666  0.72472915  0.61075339     0.07900
N2965       N  0.82608313  0.72809079  0.55891501     0.02500
N2966       N  0.80990488  0.79040319  0.96441287     0.02200
C2967       C  0.81080597  0.83575388  0.94224475     0.43800
N2968       N  0.92880498  0.72635995  0.97432153    -0.24400
C2969       C  0.89374915  0.81528118  0.58453012    -0.05300
N2970       N  0.94551693  0.72528174  0.56749069    -0.45500
N2971       N  0.79562569  0.81816990  0.96380876    -0.45700
C2972       C  0.92756617  0.81919851  0.58829249     0.43600
N2973       N  0.82246782  0.79821983  0.55303436     0.02400
N2974       N  0.92687147  0.79069876  0.96926800    -0.24400
N2975       N  0.89449934  0.73392917  0.56461342    -0.24900
N2976       N  0.90350582  0.78948737  0.94922880     0.02100
H2977       H  0.97623786  0.80332914  0.96220271     0.08000
H2978       H  0.85531307  0.82334439  0.91428934     0.08000
N2979       N  0.80108270  0.79511036  0.53160145    -0.25000
N2980       N  0.83655059  0.72073574  0.94801313    -0.24600
N2981       N  0.91856739  0.79852693  0.54348495     0.02500
C2982       C  0.80806151  0.68146480  0.56453330     0.43900
C2983       C  0.95479926  0.71298428  0.96084515    -0.05800
N2984       N  0.83445734  0.78942919  0.94526982    -0.24600
H2985       H  0.85682348  0.68853320  0.91507761     0.08000
N2986       N  0.82891808  0.70215731  0.57556256    -0.45800
H2987       H  0.97899855  0.71631417  0.96808655     0.08000
C2988       C  0.94097441  0.81074260  0.92247768     0.43700
C2989       C  0.89839424  0.72197474  0.59250116    -0.05300
Co2990     Co  0.92426923  0.76369191  0.50902513     0.73800
N2991       N  0.91278252  0.70650689  0.93074841    -0.45500
C2992       C  0.79862326  0.84270935  0.55219278     0.44000
N2993       N  0.94156858  0.80829067  0.56183552    -0.45500
Co2994     Co  0.86948171  0.75562277  0.94956861     0.73900
C2995       C  0.83605657  0.81633889  0.92946715    -0.05800
C2996       C  0.79185903  0.69734404  0.53928551    -0.05400
N2997       N  0.89082591  0.80023457  0.55820184    -0.24900
N2998       N  0.79765839  0.69203905  0.96581961    -0.45700
H2999       H  0.76634564  0.82746609  0.51368917     0.08000
C3000       C  0.95207076  0.80365663  0.95408209    -0.05800
Cl3001     Cl  0.86441403  0.76068749  0.50462445    -0.48800
C3002       C  0.94379686  0.69987055  0.93146095     0.43700
H3003       H  0.87593902  0.81361464  0.60269069     0.07900
N3004       N  0.91099473  0.80121828  0.92205680    -0.45500
C3005       C  0.68174897  0.58153044  0.55828178     0.43600
N3006       N  0.70825004  0.53807762  0.55743867     0.02500
C3007       C  0.69990208  0.95475934  0.69673973    -0.05400
H3008       H  0.69947773  0.55126815  0.71637377     0.07900
C3009       C  0.82734029  0.56166162  0.64832080    -0.05800
Co3010     Co  0.69141369  0.50004144  0.61276149     0.74200
N3011       N  0.70775078  0.53499210  0.66969969    -0.25000
Co3012     Co  0.74915005  0.50594112  0.66975313     0.74100
C3013       C  0.82523814  0.56821508  0.68067831     0.43700
N3014       N  0.79898020  0.54711759  0.57594697     0.02100
N3015       N  0.78366483  0.54230483  0.66780165     0.02200
N3016       N  0.66808103  0.95099632  0.65588153    -0.45800
H3017       H  0.65067015  0.56518763  0.59852889     0.07900
N3018       N  0.68788465  0.53264735  0.64644107     0.02500
N3019       N  0.78882690  0.97570974  0.66925740     0.02200
C3020       C  0.83296281  0.95366390  0.68196777     0.43800
N3021       N  0.77738299  0.54443283  0.55459396    -0.24400
C3022       C  0.68320168  0.93658198  0.58185384    -0.05300
N3023       N  0.70639330  0.56622835  0.54462157    -0.45500
N3024       N  0.80291764  0.96037999  0.69213216    -0.45700
C3025       C  0.69988888  0.92083427  0.55662806     0.43600
N3026       N  0.69424384  0.96598747  0.64860378     0.02400
N3027       N  0.78493532  0.97593185  0.55761244    -0.24400
N3028       N  0.68693241  0.53462250  0.57962080    -0.24900
N3029       N  0.80669954  0.97789067  0.57887965     0.02100
H3030       H  0.77247855  0.93842262  0.52785515     0.08000
H3031       H  0.85782225  0.96871479  0.63728448     0.08000
N3032       N  0.71380252  0.96875972  0.67203053    -0.25000
N3033       N  0.80193376  0.54469732  0.64277459    -0.24600
N3034       N  0.71567396  0.96853831  0.55907937     0.02500
C3035       C  0.65932409  0.55511025  0.68076715     0.43900
C3036       C  0.77539922  0.57169397  0.53946851    -0.05800
N3037       N  0.80871413  0.97966338  0.64563127    -0.24600
H3038       H  0.84804263  0.56285310  0.63325233     0.08000
N3039       N  0.65952066  0.54419863  0.65225733    -0.45800
H3040       H  0.75812176  0.57793835  0.52256538     0.08000
C3041       C  0.81313647  0.93155348  0.56054961     0.43700
C3042       C  0.66833768  0.56015747  0.58090302    -0.05300
Co3043     Co  0.74669844  0.50630020  0.55483401     0.73800
N3044       N  0.81083154  0.57568918  0.57732619    -0.45500
C3045       C  0.66923279  0.94346279  0.68567718     0.44000
N3046       N  0.71934322  0.94218105  0.54388576    -0.45500
Co3047     Co  0.80438841  0.51222544  0.60896256     0.73900
C3048       C  0.83649039  0.96604397  0.65127279    -0.05800
C3049       C  0.69158924  0.54954983  0.69286137    -0.05400
N3050       N  0.69494194  0.96559179  0.58177245    -0.24900
N3051       N  0.79762904  0.55562584  0.69167742    -0.45700
H3052       H  0.70712968  0.95768323  0.72033487     0.08000
C3053       C  0.78825639  0.94807143  0.54410126    -0.05800
Cl3054     Cl  0.74794425  0.50617633  0.61217305    -0.48800
C3055       C  0.79702738  0.59245346  0.55467773     0.43700
H3056       H  0.66748999  0.92693451  0.59930517     0.07900
N3057       N  0.82361411  0.95174015  0.58173595    -0.45500
C3058       C  0.66530959  0.55090203  0.82027449     0.43600
N3059       N  0.70944843  0.53021747  0.83509233     0.02500
C3060       C  0.71277116  0.93802147  0.97614006    -0.05400
H3061       H  0.72182385  0.56959615  0.98049044     0.07900
C3062       C  0.81352523  0.56992174  0.92528084    -0.05800
Co3063     Co  0.69251723  0.49662891  0.89367029     0.74200
N3064       N  0.71055296  0.53353173  0.94840498    -0.25000
Co3065     Co  0.74807659  0.50157322  0.94994677     0.74100
C3066       C  0.79703866  0.58653793  0.95016435     0.43700
N3067       N  0.80426324  0.53848327  0.85801533     0.02100
N3068       N  0.77975203  0.53930657  0.94803460     0.02200
N3069       N  0.68178537  0.93392816  0.93491125    -0.45800
H3070       H  0.64032465  0.53991744  0.86592761     0.07900
N3071       N  0.68984676  0.53229102  0.92610859     0.02500
N3072       N  0.78181767  0.97009952  0.96152077     0.02200
C3073       C  0.80248942  0.92368279  0.96193473     0.43800
N3074       N  0.78513097  0.53541677  0.83424322    -0.24400
C3075       C  0.66928027  0.94613700  0.86450531    -0.05300
N3076       N  0.69536824  0.54318737  0.81081682    -0.45500
N3077       N  0.78063363  0.94251073  0.97527716    -0.45700
C3078       C  0.67428779  0.93736372  0.83289060     0.43600
N3079       N  0.69298593  0.96259430  0.93764720     0.02400
N3080       N  0.78960284  0.97013116  0.84873681    -0.24400
N3081       N  0.68944081  0.52858709  0.85890807    -0.24900
N3082       N  0.80897994  0.97251238  0.87237320     0.02100
H3083       H  0.79787594  0.95127820  0.80310099     0.08000
H3084       H  0.83504548  0.93526416  0.92083022     0.08000
N3085       N  0.71253335  0.96528711  0.96075244    -0.25000
N3086       N  0.80093462  0.54126803  0.92552157    -0.24600
N3087       N  0.71418899  0.96467160  0.84733882     0.02500
C3088       C  0.68341410  0.57832101  0.94503957     0.43900
C3089       C  0.79989357  0.54861239  0.80949789    -0.05800
N3090       N  0.80352370  0.97072602  0.93938010    -0.24600
H3091       H  0.83000910  0.57875853  0.90806418     0.08000
N3092       N  0.67357106  0.55873789  0.92299065    -0.45800
H3093       H  0.79301061  0.54549799  0.78582562     0.08000
C3094       C  0.83725453  0.94747601  0.83945056     0.43700
C3095       C  0.66181013  0.54178875  0.85203142    -0.05300
Co3096     Co  0.74996071  0.50001701  0.83489557     0.73800
N3097       N  0.83105039  0.55258217  0.85087199    -0.45500
C3098       C  0.69339386  0.91696629  0.95851617     0.44000
N3099       N  0.70256980  0.94958836  0.82332509    -0.45500
Co3100     Co  0.80586891  0.50646304  0.89309617     0.73900
C3101       C  0.81825788  0.94273970  0.93836882    -0.05800
C3102       C  0.70703385  0.56100788  0.96260470    -0.05400
N3103       N  0.69398133  0.96372048  0.87099268    -0.24900
N3104       N  0.77663820  0.56597528  0.96300753    -0.45700
H3105       H  0.72830280  0.93165344  0.99447407     0.08000
C3106       C  0.80550593  0.95389926  0.82660468    -0.05800
Cl3107     Cl  0.74912416  0.50117816  0.89260805    -0.48800
C3108       C  0.83065247  0.55954318  0.82089751     0.43700
H3109       H  0.64756541  0.94521388  0.87816155     0.07900
N3110       N  0.83718340  0.95980012  0.86750532    -0.45500
C3111       C  0.54834630  0.70366481  0.66750426     0.43600
N3112       N  0.53448372  0.70211757  0.71584589     0.02500
C3113       C  0.54715553  0.55895603  0.79132571    -0.05400
H3114       H  0.53222498  0.53816773  0.70274286     0.07900
C3115       C  0.91087485  0.61532357  0.71191279    -0.05800
Co3116     Co  0.55441335  0.64160547  0.74304320     0.74200
N3117       N  0.52707701  0.58716591  0.71243906    -0.25000
Co3118     Co  0.99732294  0.58715054  0.74853611     0.74100
C3119       C  0.91181169  0.58449321  0.69935293     0.43700
N3120       N  0.94507804  0.68604649  0.72840452     0.02100
N3121       N  0.95710048  0.59382149  0.71991284     0.02200
N3122       N  0.58408195  0.59611980  0.78412849    -0.45800
H3123       H  0.57518946  0.65753962  0.67080902     0.07900
N3124       N  0.54761992  0.61013263  0.70897328     0.02500
N3125       N  0.96217510  0.58692227  0.78470196     0.02200
C3126       C  0.91876312  0.57306647  0.80838133     0.43800
N3127       N  0.96792084  0.70671325  0.72732781    -0.24400
C3128       C  0.58023195  0.66659741  0.80344631    -0.05300
N3129       N  0.53212309  0.71900209  0.69008461    -0.45500
N3130       N  0.94642187  0.56218148  0.79544943    -0.45700
C3131       C  0.56827951  0.68705614  0.82733491     0.43600
N3132       N  0.55647938  0.60487760  0.77318606     0.02400
N3133       N  0.97436923  0.69904612  0.79727621    -0.24400
N3134       N  0.55201917  0.67706343  0.71121946    -0.24900
N3135       N  0.95097085  0.67903971  0.79609815     0.02100
H3136       H  0.99316526  0.72441636  0.83628846     0.08000
H3137       H  0.89830031  0.62194736  0.80652620     0.08000
N3138       N  0.53406745  0.58361175  0.77640759    -0.25000
N3139       N  0.93907405  0.61878463  0.72469550    -0.24600
N3140       N  0.54183454  0.69492580  0.78574376     0.02500
C3141       C  0.57151618  0.57189888  0.68720043     0.43900
C3142       C  0.96514467  0.72265737  0.70046804    -0.05800
N3143       N  0.94496828  0.61253049  0.78886963    -0.24600
H3144       H  0.89053603  0.63042393  0.71588585     0.08000
N3145       N  0.57354113  0.60197791  0.69373333    -0.45800
H3146       H  0.98085496  0.74015608  0.69178135     0.08000
C3147       C  0.95107663  0.69209302  0.84366373     0.43700
C3148       C  0.56210533  0.67629174  0.68172296    -0.05300
Co3149     Co  0.00567052  0.70249505  0.75872649     0.73800
N3150       N  0.92742552  0.68630613  0.70349548    -0.45500
C3151       C  0.58061528  0.56771519  0.79598105     0.44000
N3152       N  0.54454302  0.70422024  0.81485958    -0.45500
Co3153     Co  0.94529901  0.64973251  0.75952997     0.73900
C3154       C  0.91848097  0.60624941  0.80462526    -0.05800
C3155       C  0.54026549  0.56174131  0.69900343    -0.05400
N3156       N  0.56160205  0.67191106  0.77923123    -0.29700
N3157       N  0.94110837  0.57212995  0.70494565    -0.45700
H3158       H  0.53630194  0.53639899  0.79426255     0.08000
C3159       C  0.97577377  0.70918319  0.82678344    -0.05800
Cl3160     Cl  0.00162772  0.64503132  0.75328060    -0.48800
C3161       C  0.93895538  0.70824311  0.68431797     0.43700
H3162       H  0.59694825  0.64760198  0.80588975     0.07900
N3163       N  0.93655374  0.67446167  0.82295558    -0.45500
C3164       C  0.58158629  0.93187979  0.69700012     0.43600
N3165       N  0.53864953  0.91767175  0.72096854     0.02500
C3166       C  0.53794504  0.78406941  0.80719418    -0.05400
H3167       H  0.50877887  0.77864498  0.67138401     0.07900
C3168       C  0.91715652  0.83674658  0.70201033    -0.05800
Co3169     Co  0.55656250  0.85532674  0.74610284     0.74200
N3170       N  0.52760067  0.80501364  0.70968062    -0.25000
Co3171     Co  0.99443999  0.80099635  0.74886140     0.74100
C3172       C  0.92984139  0.81718940  0.67771851     0.43700
N3173       N  0.94011780  0.89881381  0.73349438     0.02100
N3174       N  0.95634832  0.80917220  0.71914941     0.02200
N3175       N  0.57521490  0.82072132  0.80253144    -0.45800
H3176       H  0.60215050  0.88302223  0.69793606     0.07900
N3177       N  0.55068664  0.82538437  0.71023766     0.02500
N3178       N  0.96422135  0.80062339  0.78862068     0.02200
C3179       C  0.95209491  0.79827424  0.83728340     0.43800
N3180       N  0.96225533  0.92048211  0.73123806    -0.24400
C3181       C  0.59137090  0.89056598  0.79315171    -0.05300
N3182       N  0.55418616  0.94256122  0.71042817    -0.45500
N3183       N  0.96822173  0.78380058  0.81417671    -0.45700
C3184       C  0.58978749  0.92095718  0.80664164     0.43600
N3185       N  0.55761175  0.81965495  0.77769030     0.02400
N3186       N  0.96843876  0.91514236  0.79601342    -0.24400
N3187       N  0.55577856  0.89211765  0.71629992    -0.24900
N3188       N  0.94785690  0.89206628  0.79769419     0.02100
H3189       H  0.96450872  0.96242001  0.81258126     0.08000
H3190       H  0.92343592  0.84331710  0.83528200     0.08000
N3191       N  0.53494904  0.79883640  0.77969372    -0.25000
N3192       N  0.93596389  0.83153268  0.72609802    -0.24600
N3193       N  0.54470880  0.91143182  0.78570227     0.02500
C3194       C  0.55051176  0.81128593  0.66300826     0.43900
C3195       C  0.94975255  0.94462698  0.71514335    -0.05800
N3196       N  0.94579676  0.82498167  0.79388955    -0.24600
H3197       H  0.89989703  0.85531608  0.69992585     0.08000
N3198       N  0.56488356  0.82955407  0.68323839    -0.45800
H3199       H  0.96064693  0.96712667  0.71187716     0.08000
C3200       C  0.92510416  0.92729887  0.82503021     0.43700
C3201       C  0.58190019  0.89860027  0.70010728    -0.05300
Co3202     Co  0.50410660  0.91750975  0.75727983     0.73800
N3203       N  0.91314092  0.90688536  0.72077428    -0.45500
C3204       C  0.56389361  0.79960788  0.82261910     0.44000
N3205       N  0.56024868  0.93296535  0.80134620    -0.45500
Co3206     Co  0.94227936  0.86128266  0.76287327     0.73900
C3207       C  0.93661521  0.82508205  0.82367748    -0.05800
C3208       C  0.52608407  0.79426139  0.68039521    -0.05400
N3209       N  0.56317915  0.88687666  0.78039678    -0.24900
N3210       N  0.95403625  0.80048236  0.68985461    -0.45700
H3211       H  0.52245158  0.76682426  0.81685947     0.08000
C3212       C  0.95601702  0.93875017  0.81308113    -0.05800
Cl3213     Cl  0.99858649  0.85833274  0.75449031    -0.48800
C3214       C  0.91692590  0.93514416  0.70857667     0.43700
H3215       H  0.61183815  0.87561369  0.78925507     0.07900
N3216       N  0.92243732  0.89846802  0.81453665    -0.45500
C3217       C  0.86693426  0.93597859  0.82462639    -0.15300
C3218       C  0.89611187  0.94476553  0.83451142    -0.30500
H3219       H  0.86485156  0.91882204  0.80653893     0.13700
H3220       H  0.89839022  0.96350119  0.85095341     0.14300
C3221       C  0.64781958  0.92819645  0.81297303    -0.15300
C3222       C  0.61732183  0.93710936  0.81963712    -0.30500
H3223       H  0.65310157  0.91224902  0.79426785     0.13700
H3224       H  0.61239674  0.95507426  0.83655040     0.14300
C3225       C  0.86059301  0.56647181  0.80391279    -0.15300
C3226       C  0.88909261  0.55544181  0.81406815    -0.30500
H3227       H  0.85971434  0.58408463  0.78587483     0.13700
H3228       H  0.88989670  0.53651542  0.83075533     0.14300
C3229       C  0.63824485  0.55939948  0.80065942    -0.15300
C3230       C  0.60812875  0.55029964  0.80798345    -0.30500
H3231       H  0.64260398  0.57581160  0.78194907     0.13700
H3232       H  0.60374414  0.53225773  0.82510773     0.14300
C3233       C  0.85971768  0.94289467  0.70083922    -0.15300
C3234       C  0.89003304  0.95211730  0.69486877    -0.30500
H3235       H  0.85467442  0.92585597  0.71881924     0.13700
H3236       H  0.89510460  0.97078551  0.67860220     0.14300
C3237       C  0.61134871  0.94944516  0.69273007    -0.15300
C3238       C  0.63942645  0.93765583  0.70305590    -0.30500
H3239       H  0.61112721  0.96855842  0.67623287     0.13700
H3240       H  0.63979300  0.91971655  0.72079692     0.14300
C3241       C  0.85352030  0.57614889  0.69879552    -0.15300
C3242       C  0.88335148  0.56783467  0.68901892    -0.30500
H3243       H  0.85006764  0.59143161  0.71838732     0.13700
H3244       H  0.88675552  0.55049066  0.67117739     0.14300
C3245       C  0.62884658  0.56374451  0.69569755    -0.15300
C3246       C  0.60105266  0.55353815  0.68370789    -0.30500
H3247       H  0.62890904  0.58173043  0.71314770     0.13700
H3248       H  0.60092239  0.53426081  0.66766744     0.14300
C3249       C  0.79563897  0.87722204  0.55127360    -0.15300
C3250       C  0.81699319  0.89702592  0.56315856    -0.30500
H3251       H  0.77548857  0.88650439  0.53889606     0.13700
H3252       H  0.83709339  0.88783543  0.57581907     0.14300
C3253       C  0.79550113  0.62688212  0.55177093    -0.15300
C3254       C  0.81057245  0.64716915  0.56986860    -0.30500
H3255       H  0.78019495  0.63583033  0.53393143     0.13700
H3256       H  0.82586635  0.63856535  0.58801506     0.14300
C3257       C  0.81134983  0.87039218  0.94081235    -0.15300
C3258       C  0.80003876  0.88905734  0.96339437    -0.30500
H3259       H  0.82374733  0.88070185  0.92119348     0.13700
H3260       H  0.78757439  0.87881485  0.98300398     0.14300
C3261       C  0.81165676  0.64117901  0.93817521    -0.15300
C3262       C  0.79559523  0.62071583  0.95591997    -0.30500
H3263       H  0.82642465  0.63248583  0.91933034     0.13700
H3264       H  0.78067235  0.62918982  0.97466869     0.14300
C3265       C  0.95837985  0.81319198  0.89248158    -0.15300
C3266       C  0.95409758  0.79096073  0.87077876    -0.30500
H3267       H  0.96644325  0.83612363  0.88543074     0.13700
H3268       H  0.94647409  0.76790946  0.87797088     0.14300
C3269       C  0.92287505  0.82300971  0.64479262    -0.15300
C3270       C  0.94120309  0.81573269  0.61984350    -0.30500
H3271       H  0.90079021  0.83567765  0.64126013     0.13700
H3272       H  0.96423588  0.80477419  0.62276352     0.14300
C3273       C  0.96051061  0.69789611  0.90109278    -0.15300
C3274       C  0.94303298  0.68926237  0.87674579    -0.30500
H3275       H  0.98411646  0.70723499  0.89802488     0.13700
H3276       H  0.91981700  0.67908077  0.88119495     0.14300
C3277       C  0.94755574  0.71628056  0.62624175    -0.15300
C3278       C  0.92943373  0.70931207  0.65158627    -0.30500
H3279       H  0.97237111  0.72246835  0.62842088     0.13700
H3280       H  0.90557300  0.70077529  0.64836180     0.14300
C3281       C  0.69765405  0.88254323  0.95900052    -0.15300
C3282       C  0.68948247  0.86338188  0.93594506    -0.30500
H3283       H  0.70952793  0.87284166  0.97888911     0.13700
H3284       H  0.67710371  0.87277436  0.91613852     0.14300
C3285       C  0.68152938  0.61281800  0.94164385    -0.15300
C3286       C  0.70461930  0.63156878  0.95195790    -0.30500
H3287       H  0.66187990  0.62274711  0.92884742     0.13700
H3288       H  0.72443112  0.62152299  0.96432272     0.14300
C3289       C  0.68851302  0.86557226  0.56848694    -0.15300
C3290       C  0.70325801  0.88689151  0.55079267    -0.30500
H3291       H  0.67342749  0.87331436  0.58751473     0.13700
H3292       H  0.71862898  0.87931858  0.53198607     0.14300
C3293       C  0.70059296  0.63639506  0.55184986    -0.15300
C3294       C  0.67786536  0.61594074  0.56033695    -0.30500
H3295       H  0.72230107  0.62787265  0.54087196     0.13700
H3296       H  0.65620009  0.62445431  0.57141491     0.14300
C3297       C  0.57249559  0.80130192  0.85539908    -0.15300
C3298       C  0.55513962  0.79286229  0.88068495    -0.30500
H3299       H  0.59515680  0.81256159  0.85864311     0.13700
H3300       H  0.53127098  0.78379924  0.87865254     0.14300
C3301       C  0.55891901  0.81328514  0.62997650    -0.15300
C3302       C  0.54173777  0.80451703  0.60550639    -0.30500
H3303       H  0.58214654  0.82349057  0.62566380     0.13700
H3304       H  0.51807638  0.79519999  0.60828766     0.14300
C3305       C  0.55992046  0.69179642  0.88569492    -0.15300
C3306       C  0.57675371  0.68300037  0.86024692    -0.30500
H3307       H  0.53680790  0.70277315  0.88350050     0.13700
H3308       H  0.59900034  0.67048298  0.86345773     0.14300
C3309       C  0.54927555  0.71165325  0.63402239    -0.15300
C3310       C  0.54636392  0.68995163  0.61155364    -0.30500
H3311       H  0.55695415  0.73496014  0.62781306     0.13700
H3312       H  0.53795211  0.66684735  0.61753469     0.14300
loop_ 
_geom_bond_atom_site_label_1 
_geom_bond_atom_site_label_2 
_geom_bond_distance 
_geom_bond_site_symmetry_2 
_ccdc_geom_bond_type 
C1           N19   1.344       .  A
C1           C38   1.462       .  S
C1          C395   1.487       .  S
N2           N19   1.323       .  A
N2           N24   1.316       .  A
N2         Co453   2.082   1_554  S
C3           N28   1.356       .  A
C3           C41   1.476       .  S
C3           H48   1.082       .  S
H4           C45   1.081       .  S
C5           N29   1.322       .  A
C5            C9   1.448       .  S
C5           H34   1.081       .  S
Co6          N24   2.093       .  S
Co6          N14   2.063       .  S
Co6          N46   2.091       .  S
Co6          N22   2.062       .  S
Co6         Cl50   2.370   1_554  S
N7           C45   1.358       .  A
N7           N14   1.327       .  A
N7           Co8   2.135   1_554  S
Co8          N28   2.128   1_556  S
Co8         N425   2.133       .  S
Co8         N429   2.126       .  S
Co8         Cl50   2.537       .  S
C9           N47   1.363       .  A
C9          C407   1.495       .  S
N10          N17   1.314       .  A
N10          N40   1.328       .  A
N10         Co43   2.067       .  S
N11          N29   1.320       .  A
N11          N47   1.334       .  A
N11        Co422   2.115       .  S
N12          C41   1.338       .  A
N12          N22   1.315       .  A
H13          C38   1.079       .  S
N14          N35   1.316       .  A
N15          N33   1.321       .  A
N15          N20   1.339       .  A
N15        Co422   2.138       .  S
C16          N20   1.369       .  A
C16          C44   1.441       .  S
C16         C400   1.496       .  S
N17          C32   1.345       .  A
N17         Co39   2.106       .  S
C18          N46   1.348       .  A
C18          C21   1.465       .  S
C18          H52   1.080       .  S
C21          N42   1.348       .  A
C21         C391   1.494       .  S
N22          N28   1.326       .  A
N23          C49   1.341       .  A
N23          N25   1.313       .  A
N23         Co39   2.082       .  S
N24          C38   1.348       .  A
N25          N53   1.329       .  A
N25         Co43   2.086       .  S
H26          C49   1.071       .  S
H27          C44   1.081       .  S
N29         Co43   2.055       .  S
N30          N42   1.326       .  A
N30          N46   1.315       .  A
N30        Co453   2.092   1_554  S
C31          N35   1.334       .  A
C31          C45   1.481       .  S
C31         C412   1.484       .  S
C32          C51   1.454       .  S
C32          H36   1.070       .  S
N33          C44   1.321       .  A
N33         Co43   2.047       .  S
C37          N53   1.350       .  A
C37          C49   1.463       .  S
C37         C384   1.492       .  S
Co39        N416   2.100       .  S
Co39        N444   2.111       .  S
Co39       Cl464   2.511       .  S
N40          C51   1.347       .  A
C41         C404   1.495       .  S
Co43       Cl464   2.346       .  S
Cl50       Co453   2.516       .  S
Cl50       Co457   2.350       .  S
C51         C388   1.484       .  S
C54          N72   1.372       .  A
C54          C91   1.441       .  S
C54         C379   1.501       .  S
N55          N72   1.340       .  A
N55          N77   1.322       .  A
N55         Co92   2.159       .  S
C56          N81   1.342       .  A
C56          C94   1.451       .  S
C56         H101   1.072       .  S
H57          C98   1.071       .  S
C58          N82   1.335       .  A
C58          C62   1.443       .  S
C58          H87   1.081       .  S
Co59         N77   2.043       .  S
Co59         N67   2.086       .  S
Co59         N99   2.061       .  S
Co59         N75   2.063       .  S
Co59       Cl103   2.375       .  S
N60          C98   1.340       .  A
N60          N67   1.314       .  A
N60        Co475   2.082   1_554  S
Co61         N64   2.116       .  S
Co61         N68   2.122       .  S
Co61        N474   2.099       .  S
Co61        N495   2.093       .  S
Co61       Cl517   2.506       .  S
C62         N100   1.358       .  A
C62         C363   1.482       .  S
N63          N70   1.325       .  A
N63          N93   1.312       .  A
N63         Co96   2.071       .  S
N64          N82   1.311       .  A
N64         N100   1.333       .  A
N65          C94   1.346       .  A
N65          N75   1.327       .  A
H66          C91   1.081       .  S
N67          N88   1.329       .  A
N68          N86   1.317       .  A
N68          N73   1.332       .  A
C69          N73   1.357       .  A
C69          C97   1.448       .  S
C69         C359   1.489       .  S
N70          C85   1.354       .  A
N70        Co506   2.118       .  S
C71          N99   1.329       .  A
C71          C74   1.442       .  S
C71         H105   1.082       .  S
C74          N95   1.364       .  A
C74         C372   1.484       .  S
N75          N81   1.314       .  A
N76         C102   1.365       .  A
N76          N78   1.326       .  A
N76        Co506   2.157       .  S
N77          C91   1.324       .  A
N78         N106   1.314       .  A
N78         Co96   2.048       .  S
H79         C102   1.081       .  S
H80          C97   1.079       .  S
N81        Co475   2.095   1_554  S
N82         Co96   2.044       .  S
N83          N95   1.334       .  A
N83          N99   1.323       .  A
N83         Co92   2.131       .  S
C84          N88   1.351       .  A
C84          C98   1.461       .  S
C84         C356   1.492       .  S
C85         C104   1.477       .  S
C85          H89   1.082       .  S
N86          C97   1.341       .  A
N86         Co96   2.071       .  S
C90         N106   1.330       .  A
C90         C102   1.491       .  S
C90         C367   1.501       .  S
Co92        N484   2.122   1_554  S
Co92        N490   2.151   1_554  S
Co92       Cl103   2.523       .  S
N93         C104   1.337       .  A
C94         C351   1.475       .  S
Co96       Cl517   2.375       .  S
Cl103      Co475   2.505   1_554  S
Cl103      Co510   2.376   1_554  S
C104        C375   1.486       .  S
C107        N125   1.353       .  A
C107        C144   1.446       .  S
C107        C396   1.485       .  S
N108        N125   1.329       .  A
N108        N130   1.313       .  A
N108       Co145   2.121       .  S
C109        N134   1.355       .  A
C109        C147   1.477       .  S
C109        H154   1.081       .  S
H110        C151   1.081       .  S
C111        N135   1.328       .  A
C111        C115   1.439       .  S
C111        H140   1.082       .  S
Co112       N130   2.053       .  S
Co112       N120   2.031       .  S
Co112       N980   2.041   1_545  S
Co112       N956   2.045   1_545  S
Co112      Cl156   2.402       .  S
N113        C151   1.356       .  A
N113        N120   1.324       .  A
N113       Co114   2.127       .  S
Co114       N117   2.125       .  S
Co114       N962   2.116   1_545  S
Co114       N949   2.134   1_545  S
Co114      Cl156   2.489       .  S
C115        N153   1.359       .  A
C115        C343   1.473       .  S
N116        N123   1.316       .  A
N116        N146   1.332       .  A
N116       Co149   2.071       .  S
N117        N135   1.324       .  A
N117        N153   1.331       .  A
N118        C147   1.331       .  A
N118        N128   1.314       .  A
H119        C144   1.079       .  S
N120        N141   1.310       .  A
N121        N139   1.324       .  A
N121        N126   1.337       .  A
N121       Co942   2.151       .  S
C122        N126   1.367       .  A
C122        C150   1.435       .  S
C122        C335   1.485       .  S
N123        C138   1.342       .  A
N123       Co145   2.107       .  S
C124        N152   1.339       .  A
C124        C127   1.446       .  S
C124        H158   1.080       .  S
C127        N148   1.359       .  A
C127        C392   1.491       .  S
N128        N134   1.327       .  A
N128       Co940   2.049       .  S
N129        C155   1.339       .  A
N129        N131   1.315       .  A
N129       Co973   2.081       .  S
N130        C144   1.341       .  A
N131        N159   1.328       .  A
N131       Co977   2.078       .  S
H132        C155   1.072       .  S
H133        C150   1.082       .  S
N134       Co942   2.128       .  S
N135       Co149   2.042       .  S
N136        N148   1.334       .  A
N136        N152   1.314       .  A
N136       Co973   2.123       .  S
C137        N141   1.327       .  A
C137        C151   1.478       .  S
C137        C347   1.472       .  S
C138        C157   1.447       .  S
C138        H142   1.071       .  S
N139        C150   1.327       .  A
N139       Co977   2.038       .  S
C143        N159   1.349       .  A
C143        C155   1.458       .  S
C143        C352   1.484       .  S
Co145       N957   2.100   1_545  S
Co145       N964   2.128   1_545  S
Co145      Cl156   2.477       .  S
N146        C157   1.348       .  A
C147        C340   1.476       .  S
Co149       N959   2.083   1_545  S
Co149       N967   2.043   1_545  S
Co149      Cl156   2.405       .  S
N152       Co940   2.065       .  S
C157        C355   1.482       .  S
C160        N178   1.363       .  A
C160        C197   1.436       .  S
C160        C331   1.477       .  S
N161        N178   1.333       .  A
N161        N183   1.326       .  A
N161       Co198   2.138   1_545  S
C162        N187   1.342       .  A
C162        C200   1.446       .  S
C162        H207   1.069       .  S
H163        C204   1.069       .  S
C164        N188   1.345       .  A
C164        C168   1.459       .  S
C164        H193   1.080       .  S
Co165       N183   2.045   1_565  S
Co165       N173   2.078   1_565  S
Co165      N1033   2.032       .  S
Co165      N1009   2.079       .  S
Co165      Cl209   2.396       .  S
N166        C204   1.342       .  A
N166        N173   1.313       .  A
N166       Co167   2.090   1_545  S
Co167       N170   2.100   1_565  S
Co167      N1015   2.102       .  S
Co167      N1002   2.094       .  S
Co167      Cl209   2.501       .  S
C168        N206   1.348       .  A
C168        C364   1.490       .  S
N169        N176   1.326       .  A
N169        N199   1.316       .  A
N169       Co202   2.042       .  S
N170        N188   1.314       .  A
N170        N206   1.326       .  A
N171        C200   1.349       .  A
N171        N181   1.332       .  A
H172        C197   1.082       .  S
N173        N194   1.328       .  A
N174        N192   1.313       .  A
N174        N179   1.321       .  A
N174       Co995   2.085       .  S
C175        N179   1.341       .  A
C175        C203   1.465       .  S
C175        C360   1.490       .  S
N176        C191   1.358       .  A
N176       Co198   2.144   1_545  S
C177        N205   1.324       .  A
C177        C180   1.435       .  S
C177        H211   1.082       .  S
C180        N201   1.360       .  A
C180        C323   1.474       .  S
N181        N187   1.315       .  A
N181       Co993   2.073       .  S
N182        C208   1.355       .  A
N182        N184   1.326       .  A
N182      Co1026   2.136       .  S
N183        C197   1.328       .  A
N184        N212   1.314       .  A
N184      Co1030   2.038       .  S
H185        C208   1.081       .  S
H186        C203   1.079       .  S
N187       Co995   2.105       .  S
N188       Co202   2.074       .  S
N189        N201   1.332       .  A
N189        N205   1.323       .  A
N189      Co1026   2.128       .  S
C190        N194   1.348       .  A
C190        C204   1.457       .  S
C190        C387   1.489       .  S
C191        C210   1.480       .  S
C191        H195   1.082       .  S
N192        C203   1.352       .  A
N192      Co1030   2.092       .  S
C196        N212   1.330       .  A
C196        C208   1.478       .  S
C196        C319   1.474       .  S
Co198      N1010   2.131       .  S
Co198      N1017   2.141       .  S
Co198      Cl209   2.493       .  S
N199        C210   1.331       .  A
C200        C383   1.483       .  S
Co202      N1012   2.039   1_545  S
Co202      N1020   2.074   1_545  S
Co202      Cl209   2.396   1_545  S
N205       Co993   2.031       .  S
C210        C327   1.484       .  S
C213        N231   1.354       .  A
C213        C250   1.446       .  S
C213        C411   1.483       .  S
N214        N231   1.331       .  A
N214        N236   1.314       .  A
N214      Co1907   2.125       .  S
C215        N240   1.355       .  A
C215        C253   1.478       .  S
C215        H260   1.082       .  S
H216        C257   1.081       .  S
C217        N241   1.326       .  A
C217        C221   1.437       .  S
C217        H246   1.081       .  S
Co218       N236   2.049       .  S
Co218       N226   2.028       .  S
Co218       N258   2.062       .  S
Co218       N234   2.056       .  S
Co218     Cl1918   2.389       .  S
N219        C257   1.353       .  A
N219        N226   1.323       .  A
N219      Co1876   2.121   1_455  S
Co220       N223   2.133       .  S
Co220       N227   2.134       .  S
Co220      N1875   2.119       .  S
Co220      N1896   2.128       .  S
Co220      Cl262   2.502       .  S
C221        N259   1.362       .  A
C221        C344   1.475       .  S
N222        N229   1.316       .  A
N222        N252   1.326       .  A
N222       Co255   2.077       .  S
N223        N241   1.324       .  A
N223        N259   1.333       .  A
N224        C253   1.332       .  A
N224        N234   1.314       .  A
H225        C250   1.080       .  S
N226        N247   1.311       .  A
N227        N245   1.323       .  A
N227        N232   1.335       .  A
C228        N232   1.362       .  A
C228        C256   1.437       .  S
C228        C328   1.484       .  S
N229        C244   1.352       .  A
N229       Co251   2.105       .  S
C230        N258   1.333       .  A
C230        C233   1.440       .  S
C230        H264   1.079       .  S
C233        N254   1.353       .  A
C233        C408   1.474       .  S
N234        N240   1.325       .  A
N235        C261   1.351       .  A
N235        N237   1.316       .  A
N235       Co251   2.112       .  S
N236        C250   1.341       .  A
N237        N265   1.325       .  A
N237       Co255   2.057       .  S
H238        C261   1.071       .  S
H239        C256   1.082       .  S
N240      Co1876   2.124   1_455  S
N241       Co255   2.041       .  S
N242        N254   1.332       .  A
N242        N258   1.315       .  A
N242      Co1907   2.099       .  S
C243        N247   1.328       .  A
C243        C257   1.474       .  S
C243        C348   1.472       .  S
C244        C263   1.453       .  S
C244        H248   1.068       .  S
N245        C256   1.330       .  A
N245       Co255   2.040       .  S
C249        N265   1.342       .  A
C249        C261   1.449       .  S
C249        C376   1.467       .  S
Co251      N1870   2.119       .  S
Co251      N1898   2.093       .  S
Co251      Cl262   2.489       .  S
N252        C263   1.346       .  A
C253        C332   1.476       .  S
Co255      Cl262   2.391       .  S
Cl262     Co1874   2.383       .  S
C263        C380   1.486       .  S
C266        N284   1.362       .  A
C266        C303   1.435       .  S
C266        C339   1.478       .  S
N267        N284   1.334       .  A
N267        N289   1.324       .  A
N267       Co304   2.134       .  S
C268        N293   1.353       .  A
C268        C306   1.458       .  S
C268        H313   1.068       .  S
H269        C310   1.075       .  S
C270        N294   1.347       .  A
C270        C274   1.454       .  S
C270        H299   1.080       .  S
Co271       N289   2.037       .  S
Co271       N279   2.052       .  S
Co271       N311   2.034       .  S
Co271       N287   2.054       .  S
Co271     Cl1971   2.386       .  S
N272        C310   1.359       .  A
N272        N279   1.315       .  A
N272      Co1929   2.126   1_455  S
Co273       N276   2.109       .  S
Co273       N280   2.121       .  S
Co273      N1928   2.150       .  S
Co273      N1949   2.118       .  S
Co273      Cl315   2.494       .  S
C274        N312   1.345       .  A
C274        C371   1.484       .  S
N275        N282   1.326       .  A
N275        N305   1.319       .  A
N275       Co308   2.049       .  S
N276        N294   1.317       .  A
N276        N312   1.326       .  A
N277        C306   1.341       .  A
N277        N287   1.321       .  A
H278        C303   1.082       .  S
N279        N300   1.320       .  A
N280        N298   1.316       .  A
N280        N285   1.332       .  A
C281        N285   1.354       .  A
C281        C309   1.445       .  S
C281        C368   1.486       .  S
N282        C297   1.353       .  A
N282      Co1960   2.136       .  S
C283        N311   1.323       .  A
C283        C286   1.433       .  S
C283        H317   1.082       .  S
C286        N307   1.363       .  A
C286        C324   1.473       .  S
N287        N293   1.314       .  A
N288        C314   1.353       .  A
N288        N290   1.324       .  A
N288      Co1960   2.122       .  S
N289        C303   1.327       .  A
N290        N318   1.314       .  A
N290       Co308   2.040       .  S
H291        C314   1.081       .  S
H292        C309   1.079       .  S
N293      Co1929   2.108   1_455  S
N294       Co308   2.077       .  S
N295        N307   1.334       .  A
N295        N311   1.323       .  A
N295       Co304   2.131       .  S
C296        N300   1.339       .  A
C296        C310   1.466       .  S
C296        C403   1.479       .  S
C297        C316   1.476       .  S
C297        H301   1.081       .  S
N298        C309   1.344       .  A
N298       Co308   2.070       .  S
C302        N318   1.331       .  A
C302        C314   1.475       .  S
C302        C320   1.474       .  S
Co304      N1938   2.139   1_455  S
Co304      N1944   2.132   1_455  S
Co304     Cl1971   2.507       .  S
N305        C316   1.335       .  A
C306        C399   1.478       .  S
Co308      Cl315   2.399       .  S
Cl315     Co1927   2.399       .  S
Cl315     Co1960   2.494       .  S
C316        C336   1.481       .  S
C319        C320   1.362       .  D
C319        H321   1.086       .  S
C320        H322   1.086       .  S
C323        C324   1.363       .  D
C323        H325   1.085       .  S
C324        H326   1.086       .  S
C327        C328   1.365       .  D
C327        H329   1.086       .  S
C328        H330   1.086       .  S
C331        C332   1.362       .  D
C331        H333   1.086       .  S
C332        H334   1.085       .  S
C335        C336   1.363       .  D
C335        H337   1.086       .  S
C336        H338   1.085       .  S
C339        C340   1.363       .  D
C339        H341   1.086       .  S
C340        H342   1.086       .  S
C343        C344   1.359       .  D
C343        H345   1.085       .  S
C344        H346   1.086       .  S
C347        C348   1.365       .  D
C347        H349   1.086       .  S
C348        H350   1.086       .  S
C351        C352   1.345       .  D
C351        H353   1.080       .  S
C352        H354   1.086       .  S
C355        C356   1.347       .  D
C355        H357   1.080       .  S
C356        H358   1.086       .  S
C359        C360   1.346       .  D
C359        H361   1.086       .  S
C360        H362   1.086       .  S
C363        C364   1.343       .  D
C363        H365   1.085       .  S
C364        H366   1.082       .  S
C367        C368   1.367       .  D
C367        H369   1.085       .  S
C368        H370   1.084       .  S
C371        C372   1.354       .  D
C371        H373   1.086       .  S
C372        H374   1.086       .  S
C375        C376   1.357       .  D
C375        H377   1.086       .  S
C376        H378   1.085       .  S
C379        C380   1.363       .  D
C379        H381   1.086       .  S
C380        H382   1.085       .  S
C383        C384   1.346       .  D
C383        H385   1.081       .  S
C384        H386   1.086       .  S
C387        C388   1.351       .  D
C387        H389   1.086       .  S
C388        H390   1.084       .  S
C391        C392   1.345       .  D
C391        H393   1.082       .  S
C392        H394   1.085       .  S
C395        C396   1.346       .  D
C395        H397   1.084       .  S
C396        H398   1.085       .  S
C399        C400   1.358       .  D
C399        H401   1.086       .  S
C400        H402   1.086       .  S
C403        C404   1.355       .  D
C403        H405   1.086       .  S
C404        H406   1.083       .  S
C407        C408   1.352       .  D
C407        H409   1.083       .  S
C408        H410   1.085       .  S
C411        C412   1.358       .  D
C411        H413   1.086       .  S
C412        H414   1.086       .  S
C415        N433   1.348       .  A
C415        C452   1.460       .  S
C415        C809   1.490       .  S
N416        N433   1.326       .  A
N416        N438   1.316       .  A
C417        N442   1.358       .  A
C417        C455   1.479       .  S
C417        H462   1.082       .  S
H418        C459   1.082       .  S
C419        N443   1.326       .  A
C419        C423   1.447       .  S
C419        H448   1.081       .  S
Co420       N438   2.081       .  S
Co420       N428   2.060       .  S
Co420       N460   2.074       .  S
Co420       N436   2.063       .  S
Co420      Cl464   2.361       .  S
N421        C459   1.359       .  A
N421        N428   1.326       .  A
N421       Co422   2.135       .  S
Co422       N442   2.119       .  S
Co422      Cl464   2.545       .  S
C423        N461   1.366       .  A
C423        C821   1.504       .  S
N424        N431   1.314       .  A
N424        N454   1.329       .  A
N424       Co457   2.076       .  S
N425        N443   1.321       .  A
N425        N461   1.337       .  A
N426        C455   1.335       .  A
N426        N436   1.310       .  A
H427        C452   1.079       .  S
N428        N449   1.316       .  A
N429        N447   1.321       .  A
N429        N434   1.337       .  A
C430        N434   1.366       .  A
C430        C458   1.442       .  S
C430        C814   1.490       .  S
N431        C446   1.346       .  A
N431       Co453   2.102       .  S
C432        N460   1.339       .  A
C432        C435   1.448       .  S
C432        H466   1.080       .  S
C435        N456   1.359       .  A
C435        C805   1.491       .  S
N436        N442   1.325       .  A
N437        C463   1.344       .  A
N437        N439   1.313       .  A
N437       Co453   2.083       .  S
N438        C452   1.346       .  A
N439        N467   1.329       .  A
N439       Co457   2.089       .  S
H440        C463   1.073       .  S
H441        C458   1.082       .  S
N443       Co457   2.055       .  S
N444        N456   1.335       .  A
N444        N460   1.315       .  A
C445        N449   1.334       .  A
C445        C459   1.482       .  S
C445        C826   1.488       .  S
C446        C465   1.456       .  S
C446        H450   1.074       .  S
N447        C458   1.319       .  A
N447       Co457   2.049       .  S
C451        N467   1.350       .  A
C451        C463   1.460       .  S
C451        C798   1.492       .  S
N454        C465   1.349       .  A
C455        C818   1.493       .  S
C465        C802   1.487       .  S
C468        N486   1.370       .  A
C468        C505   1.440       .  S
C468        C793   1.499       .  S
N469        N486   1.340       .  A
N469        N491   1.320       .  A
N469       Co506   2.142       .  S
C470        N495   1.343       .  A
C470        C508   1.455       .  S
C470        H515   1.072       .  S
H471        C512   1.069       .  S
C472        N496   1.336       .  A
C472        C476   1.444       .  S
C472        H501   1.080       .  S
Co473       N491   2.041       .  S
Co473       N481   2.085       .  S
Co473       N513   2.064       .  S
Co473       N489   2.061       .  S
Co473      Cl517   2.361       .  S
N474        C512   1.345       .  A
N474        N481   1.315       .  A
Co475       N478   2.121       .  S
Co475       N482   2.111       .  S
C476        N514   1.359       .  A
C476        C777   1.487       .  S
N477        N484   1.325       .  A
N477        N507   1.310       .  A
N477       Co510   2.065       .  S
N478        N496   1.312       .  A
N478        N514   1.335       .  A
N479        C508   1.347       .  A
N479        N489   1.327       .  A
H480        C505   1.081       .  S
N481        N502   1.329       .  A
N482        N500   1.315       .  A
N482        N487   1.329       .  A
C483        N487   1.353       .  A
C483        C511   1.451       .  S
C483        C773   1.488       .  S
N484        C499   1.357       .  A
C485        N513   1.326       .  A
C485        C488   1.449       .  S
C485        H519   1.081       .  S
C488        N509   1.364       .  A
C488        C786   1.498       .  S
N489        N495   1.312       .  A
N490        C516   1.363       .  A
N490        N492   1.326       .  A
N491        C505   1.321       .  A
N492        N520   1.315       .  A
N492       Co510   2.052       .  S
H493        C516   1.081       .  S
H494        C511   1.079       .  S
N496       Co510   2.049       .  S
N497        N509   1.335       .  A
N497        N513   1.324       .  A
N497       Co506   2.129       .  S
C498        N502   1.349       .  A
C498        C512   1.465       .  S
C498        C770   1.497       .  S
C499        C518   1.479       .  S
C499        H503   1.082       .  S
N500        C511   1.343       .  A
N500       Co510   2.072       .  S
C504        N520   1.330       .  A
C504        C516   1.488       .  S
C504        C781   1.493       .  S
Co506      Cl517   2.528       .  S
N507        C518   1.335       .  A
C508        C765   1.478       .  S
C518        C789   1.493       .  S
C521        N539   1.350       .  A
C521        C558   1.451       .  S
C521        C810   1.486       .  S
N522        N539   1.328       .  A
N522        N544   1.314       .  A
N522       Co559   2.099       .  S
C523        N548   1.354       .  A
C523        C561   1.475       .  S
C523        H568   1.081       .  S
H524        C565   1.081       .  S
C525        N549   1.326       .  A
C525        C529   1.438       .  S
C525        H554   1.082       .  S
Co526       N544   2.074   1_565  S
Co526       N534   2.038   1_565  S
Co526      N1394   2.056       .  S
Co526      N1370   2.047       .  S
Co526      Cl570   2.403   1_565  S
N527        C565   1.354       .  A
N527        N534   1.326       .  A
N527       Co528   2.125       .  S
Co528       N531   2.125       .  S
Co528      N1376   2.122   1_545  S
Co528      N1363   2.133   1_545  S
Co528      Cl570   2.488       .  S
C529        N567   1.360       .  A
C529        C757   1.476       .  S
N530        N537   1.315       .  A
N530        N560   1.334       .  A
N530       Co563   2.084       .  S
N531        N549   1.324       .  A
N531        N567   1.333       .  A
N532        C561   1.333       .  A
N532        N542   1.316       .  A
H533        C558   1.079       .  S
N534        N555   1.312       .  A
N535        N553   1.324       .  A
N535        N540   1.335       .  A
N535      Co1356   2.142       .  S
C536        N540   1.364       .  A
C536        C564   1.437       .  S
C536        C749   1.480       .  S
N537        C552   1.341       .  A
N537       Co559   2.100       .  S
C538        N566   1.348       .  A
C538        C541   1.461       .  S
C538        H572   1.080       .  S
C541        N562   1.348       .  A
C541        C806   1.495       .  S
N542        N548   1.326       .  A
N542      Co1354   2.045       .  S
N543        C569   1.339       .  A
N543        N545   1.314       .  A
N543      Co1387   2.084       .  S
N544        C558   1.344       .  A
N545        N573   1.329       .  A
N545      Co1391   2.080       .  S
H546        C569   1.066       .  S
H547        C564   1.082       .  S
N548      Co1356   2.130       .  S
N549       Co563   2.041       .  S
N550        N562   1.325       .  A
N550        N566   1.314       .  A
N550      Co1387   2.106       .  S
C551        N555   1.329       .  A
C551        C565   1.475       .  S
C551        C761   1.468       .  S
C552        C571   1.448       .  S
C552        H556   1.069       .  S
N553        C564   1.327       .  A
N553      Co1391   2.042       .  S
C557        N573   1.349       .  A
C557        C569   1.453       .  S
C557        C766   1.486       .  S
Co559      N1371   2.094   1_545  S
Co559      N1378   2.114   1_545  S
Co559      Cl570   2.485       .  S
N560        C571   1.352       .  A
C561        C754   1.477       .  S
Co563      N1373   2.087   1_545  S
Co563      N1381   2.042   1_545  S
Co563      Cl570   2.401       .  S
N566      Co1354   2.075       .  S
C571        C769   1.489       .  S
C574        N592   1.363       .  A
C574        C611   1.436       .  S
C574        C745   1.477       .  S
N575        N592   1.334       .  A
N575        N597   1.323       .  A
N575       Co612   2.134   1_545  S
C576        N601   1.344       .  A
C576        C614   1.453       .  S
C576        H621   1.074       .  S
H577        C618   1.070       .  S
C578        N602   1.345       .  A
C578        C582   1.459       .  S
C578        H607   1.079       .  S
Co579       N597   2.037   1_565  S
Co579       N587   2.081   1_565  S
Co579      N1447   2.036       .  S
Co579      N1423   2.071       .  S
Co579      Cl623   2.388       .  S
N580        C618   1.344       .  A
N580        N587   1.315       .  A
N580       Co581   2.094   1_545  S
Co581       N584   2.104   1_565  S
Co581      N1429   2.108       .  S
Co581      N1416   2.095       .  S
Co581      Cl623   2.492       .  S
C582        N620   1.349       .  A
C582        C778   1.494       .  S
N583        N590   1.326       .  A
N583        N613   1.316       .  A
N583       Co616   2.053   1_545  S
N584        N602   1.314       .  A
N584        N620   1.326       .  A
N585        C614   1.350       .  A
N585        N595   1.330       .  A
H586        C611   1.082       .  S
N587        N608   1.328       .  A
N588        N606   1.316       .  A
N588        N593   1.324       .  A
N588      Co1409   2.093       .  S
C589        N593   1.345       .  A
C589        C617   1.461       .  S
C589        C774   1.489       .  S
N590        C605   1.353       .  A
N590       Co612   2.128   1_545  S
C591        N619   1.325       .  A
C591        C594   1.436       .  S
C591        H625   1.082       .  S
C594        N615   1.362       .  A
C594        C737   1.477       .  S
N595        N601   1.314       .  A
N595      Co1407   2.076       .  S
N596        C622   1.355       .  A
N596        N598   1.326       .  A
N596      Co1440   2.138       .  S
N597        C611   1.327       .  A
N598        N626   1.316       .  A
N598      Co1444   2.043       .  S
H599        C622   1.081       .  S
H600        C617   1.079       .  S
N601      Co1409   2.097       .  S
N602       Co616   2.071   1_545  S
N603        N615   1.333       .  A
N603        N619   1.324       .  A
N603      Co1440   2.132       .  S
C604        N608   1.349       .  A
C604        C618   1.459       .  S
C604        C801   1.491       .  S
C605        C624   1.474       .  S
C605        H609   1.082       .  S
N606        C617   1.349       .  A
N606      Co1444   2.087       .  S
C610        N626   1.332       .  A
C610        C622   1.478       .  S
C610        C733   1.477       .  S
Co612      N1424   2.130       .  S
Co612      N1431   2.127       .  S
Co612      Cl623   2.502       .  S
N613        C624   1.334       .  A
C614        C797   1.486       .  S
Co616      N1426   2.035       .  S
Co616      N1434   2.083       .  S
Co616      Cl623   2.398       .  S
N619      Co1407   2.036       .  S
C624        C741   1.477       .  S
C627        N645   1.354       .  A
C627        C664   1.447       .  S
C627        C825   1.486       .  S
N628        N645   1.332       .  A
N628        N650   1.314       .  A
N628      Co2321   2.123       .  S
C629        N654   1.355       .  A
C629        C667   1.478       .  S
C629        H674   1.081       .  S
H630        C671   1.082       .  S
C631        N655   1.328       .  A
C631        C635   1.437       .  S
C631        H660   1.082       .  S
Co632       N650   2.056       .  S
Co632       N640   2.039       .  S
Co632       N672   2.082       .  S
Co632       N648   2.049       .  S
Co632     Cl2332   2.388   1_455  S
N633        C671   1.352       .  A
N633        N640   1.324       .  A
N633      Co2290   2.115   1_455  S
Co634      N2289   2.117       .  S
Co634       N637   2.134       .  S
Co634      N2310   2.141       .  S
Co634       N641   2.134       .  S
Co634      Cl676   2.500       .  S
C635        N673   1.361       .  A
C635        C758   1.476       .  S
N636        N643   1.315       .  A
N636        N666   1.322       .  A
N636       Co669   2.056       .  S
N637        N655   1.324       .  A
N637        N673   1.333       .  A
N638        C667   1.331       .  A
N638        N648   1.315       .  A
H639        C664   1.080       .  S
N640        N661   1.311       .  A
N641        N659   1.324       .  A
N641        N646   1.334       .  A
C642        N646   1.362       .  A
C642        C670   1.436       .  S
C642        C742   1.480       .  S
N643        C658   1.353       .  A
N643       Co665   2.114       .  S
C644        N672   1.338       .  A
C644        C647   1.446       .  S
C644        H678   1.078       .  S
C647        N668   1.354       .  A
C647        C822   1.489       .  S
N648        N654   1.325       .  A
N649        C675   1.360       .  A
N649        N651   1.316       .  A
N649       Co665   2.121       .  S
N650        C664   1.343       .  A
N651        N679   1.318       .  A
N651       Co669   2.049       .  S
H652        C675   1.076       .  S
H653        C670   1.082       .  S
N654      Co2290   2.128   1_455  S
N655       Co669   2.040       .  S
N656        N668   1.336       .  A
N656        N672   1.317       .  A
N656      Co2321   2.107       .  S
C657        N661   1.330       .  A
C657        C671   1.472       .  S
C657        C762   1.469       .  S
C658        C677   1.457       .  S
C658        H662   1.069       .  S
N659        C670   1.328       .  A
N659       Co669   2.039       .  S
C663        N679   1.337       .  A
C663        C675   1.463       .  S
C663        C790   1.475       .  S
Co665      N2284   2.128       .  S
Co665      N2312   2.102       .  S
Co665      Cl676   2.483       .  S
N666        C677   1.343       .  A
C667        C746   1.475       .  S
Co669      Cl676   2.394       .  S
Cl676     Co2288   2.391       .  S
C677        C794   1.480       .  S
C680        N698   1.361       .  A
C680        C717   1.437       .  S
C680        C753   1.478       .  S
N681        N698   1.334       .  A
N681        N703   1.324       .  A
N681       Co718   2.130       .  S
C682        N707   1.353       .  A
C682        C720   1.457       .  S
C682        H727   1.068       .  S
H683        C724   1.071       .  S
C684        N708   1.337       .  A
C684        C688   1.444       .  S
C684        H713   1.078       .  S
Co685       N703   2.043       .  S
Co685       N693   2.041       .  S
Co685       N725   2.036       .  S
Co685       N701   2.047       .  S
Co685     Cl2385   2.391       .  S
N686        C724   1.357       .  A
N686        N693   1.315       .  A
N686      Co2343   2.123   1_455  S
Co687      N2342   2.144       .  S
Co687       N690   2.112       .  S
Co687      N2363   2.115       .  S
Co687       N694   2.142       .  S
Co687      Cl729   2.493       .  S
C688        N726   1.351       .  A
C688        C785   1.483       .  S
N689        N696   1.326       .  A
N689        N719   1.317       .  A
N689       Co722   2.055       .  S
N690        N708   1.316       .  A
N690        N726   1.333       .  A
N691        C720   1.338       .  A
N691        N701   1.319       .  A
H692        C717   1.082       .  S
N693        N714   1.318       .  A
N694        N712   1.315       .  A
N694        N699   1.332       .  A
C695        N699   1.356       .  A
C695        C723   1.443       .  S
C695        C782   1.491       .  S
N696        C711   1.354       .  A
N696      Co2374   2.133       .  S
C697        N725   1.326       .  A
C697        C700   1.434       .  S
C697        H731   1.081       .  S
C700        N721   1.363       .  A
C700        C738   1.477       .  S
N701        N707   1.315       .  A
N702        C728   1.356       .  A
N702        N704   1.323       .  A
N702      Co2374   2.131       .  S
N703        C717   1.328       .  A
N704        N732   1.314       .  A
N704       Co722   2.032       .  S
H705        C728   1.081       .  S
H706        C723   1.079       .  S
N707      Co2343   2.111   1_455  S
N708       Co722   2.069       .  S
N709        N721   1.334       .  A
N709        N725   1.323       .  A
N709       Co718   2.136       .  S
C710        N714   1.337       .  A
C710        C724   1.458       .  S
C710        C817   1.468       .  S
C711        C730   1.477       .  S
C711        H715   1.081       .  S
N712        C723   1.344       .  A
N712       Co722   2.049       .  S
C716        N732   1.330       .  A
C716        C728   1.478       .  S
C716        C734   1.479       .  S
Co718      N2352   2.132   1_455  S
Co718      N2358   2.125   1_455  S
Co718     Cl2385   2.497       .  S
N719        C730   1.333       .  A
C720        C813   1.472       .  S
Co722      Cl729   2.406       .  S
Cl729     Co2341   2.402       .  S
Cl729     Co2374   2.488       .  S
C730        C750   1.477       .  S
C733        C734   1.364       .  D
C733        H735   1.086       .  S
C734        H736   1.086       .  S
C737        C738   1.363       .  D
C737        H739   1.085       .  S
C738        H740   1.086       .  S
C741        C742   1.362       .  D
C741        H743   1.086       .  S
C742        H744   1.086       .  S
C745        C746   1.362       .  D
C745        H747   1.086       .  S
C746        H748   1.085       .  S
C749        C750   1.361       .  D
C749        H751   1.086       .  S
C750        H752   1.085       .  S
C753        C754   1.361       .  D
C753        H755   1.086       .  S
C754        H756   1.086       .  S
C757        C758   1.360       .  D
C757        H759   1.085       .  S
C758        H760   1.086       .  S
C761        C762   1.362       .  D
C761        H763   1.086       .  S
C762        H764   1.086       .  S
C765        C766   1.350       .  D
C765        H767   1.083       .  S
C766        H768   1.086       .  S
C769        C770   1.347       .  D
C769        H771   1.081       .  S
C770        H772   1.086       .  S
C773        C774   1.347       .  D
C773        H775   1.085       .  S
C774        H776   1.085       .  S
C777        C778   1.345       .  D
C777        H779   1.085       .  S
C778        H780   1.082       .  S
C781        C782   1.364       .  D
C781        H783   1.085       .  S
C782        H784   1.085       .  S
C785        C786   1.354       .  D
C785        H787   1.086       .  S
C786        H788   1.085       .  S
C789        C790   1.355       .  D
C789        H791   1.081       .  S
C790        H792   1.087       .  S
C793        C794   1.361       .  D
C793        H795   1.086       .  S
C794        H796   1.085       .  S
C797        C798   1.350       .  D
C797        H799   1.084       .  S
C798        H800   1.086       .  S
C801        C802   1.351       .  D
C801        H803   1.086       .  S
C802        H804   1.084       .  S
C805        C806   1.345       .  D
C805        H807   1.085       .  S
C806        H808   1.083       .  S
C809        C810   1.349       .  D
C809        H811   1.085       .  S
C810        H812   1.085       .  S
C813        C814   1.354       .  D
C813        H815   1.086       .  S
C814        H816   1.086       .  S
C817        C818   1.357       .  D
C817        H819   1.086       .  S
C818        H820   1.086       .  S
C821        C822   1.357       .  D
C821        H823   1.084       .  S
C822        H824   1.086       .  S
C825        C826   1.360       .  D
C825        H827   1.086       .  S
C826        H828   1.085       .  S
C829        N847   1.353       .  A
C829        C866   1.450       .  S
C829       C1223   1.487       .  S
N830        N847   1.330       .  A
N830        N852   1.316       .  A
N830      Co1281   2.098       .  S
C831        N856   1.358       .  A
C831        C869   1.479       .  S
C831        H876   1.082       .  S
H832        C873   1.081       .  S
C833        N857   1.324       .  A
C833        C837   1.448       .  S
C833        H862   1.080       .  S
Co834       N852   2.084       .  S
Co834       N842   2.058       .  S
Co834       N874   2.065       .  S
Co834       N850   2.063       .  S
Co834      Cl878   2.373   1_554  S
N835        C873   1.360       .  A
N835        N842   1.327       .  A
N835       Co836   2.139   1_554  S
Co836      N1253   2.127       .  S
Co836       N856   2.131   1_556  S
Co836      N1257   2.140       .  S
Co836      Cl878   2.540       .  S
C837        N875   1.364       .  A
C837       C1235   1.497       .  S
N838        N845   1.313       .  A
N838        N868   1.328       .  A
N838       Co871   2.066       .  S
N839        N857   1.323       .  A
N839        N875   1.335       .  A
N839      Co1250   2.124       .  S
N840        C869   1.337       .  A
N840        N850   1.315       .  A
H841        C866   1.079       .  S
N842        N863   1.314       .  A
N843        N861   1.321       .  A
N843        N848   1.337       .  A
N843      Co1250   2.132       .  S
C844        N848   1.367       .  A
C844        C872   1.444       .  S
C844       C1228   1.496       .  S
N845        C860   1.345       .  A
N845       Co867   2.100       .  S
C846        N874   1.343       .  A
C846        C849   1.459       .  S
C846        H880   1.080       .  S
C849        N870   1.351       .  A
C849       C1219   1.492       .  S
N850        N856   1.326       .  A
N851        C877   1.343       .  A
N851        N853   1.314       .  A
N851       Co867   2.089       .  S
N852        C866   1.342       .  A
N853        N881   1.328       .  A
N853       Co871   2.084       .  S
H854        C877   1.071       .  S
H855        C872   1.081       .  S
N857       Co871   2.058       .  S
N858        N870   1.328       .  A
N858        N874   1.314       .  A
N858      Co1281   2.107       .  S
C859        N863   1.331       .  A
C859        C873   1.483       .  S
C859       C1240   1.485       .  S
C860        C879   1.457       .  S
C860        H864   1.072       .  S
N861        C872   1.323       .  A
N861       Co871   2.050       .  S
C865        N881   1.349       .  A
C865        C877   1.464       .  S
C865       C1212   1.493       .  S
Co867      N1244   2.111       .  S
Co867      N1272   2.123       .  S
Co867     Cl1292   2.508       .  S
N868        C879   1.347       .  A
C869       C1232   1.499       .  S
Co871     Cl1292   2.358       .  S
Cl878     Co1281   2.506   1_556  S
Cl878     Co1285   2.349       .  S
C879       C1216   1.482       .  S
C882        N900   1.366       .  A
C882        C919   1.446       .  S
C882       C1207   1.498       .  S
N883        N900   1.337       .  A
N883        N905   1.322       .  A
N883       Co920   2.133       .  S
C884        N909   1.344       .  A
C884        C922   1.455       .  S
C884        H929   1.071       .  S
H885        C926   1.074       .  S
C886        N910   1.336       .  A
C886        C890   1.443       .  S
C886        H915   1.080       .  S
Co887       N905   2.052       .  S
Co887       N895   2.089       .  S
Co887       N927   2.059       .  S
Co887       N903   2.074       .  S
Co887      Cl931   2.360       .  S
N888        C926   1.341       .  A
N888        N895   1.313       .  A
N888      Co1303   2.082   1_554  S
Co889      N1302   2.085       .  S
Co889       N892   2.136       .  S
Co889      N1323   2.109       .  S
Co889       N896   2.112       .  S
Co889     Cl1345   2.510       .  S
C890        N928   1.364       .  A
C890       C1191   1.493       .  S
N891        N898   1.324       .  A
N891        N921   1.310       .  A
N891       Co924   2.064       .  S
N892        N910   1.313       .  A
N892        N928   1.338       .  A
N893        C922   1.349       .  A
N893        N903   1.331       .  A
H894        C919   1.080       .  S
N895        N916   1.329       .  A
N896        N914   1.315       .  A
N896        N901   1.331       .  A
C897        N901   1.355       .  A
C897        C925   1.448       .  S
C897       C1187   1.487       .  S
N898        C913   1.356       .  A
N898      Co1334   2.120       .  S
C899        N927   1.326       .  A
C899        C902   1.450       .  S
C899        H933   1.081       .  S
C902        N923   1.363       .  A
C902       C1200   1.499       .  S
N903        N909   1.315       .  A
N904        C930   1.361       .  A
N904        N906   1.326       .  A
N904      Co1334   2.142       .  S
N905        C919   1.322       .  A
N906        N934   1.313       .  A
N906       Co924   2.052       .  S
H907        C930   1.081       .  S
H908        C925   1.079       .  S
N909      Co1303   2.107   1_554  S
N910       Co924   2.052       .  S
N911        N923   1.335       .  A
N911        N927   1.322       .  A
N911       Co920   2.121       .  S
C912        N916   1.351       .  A
C912        C926   1.464       .  S
C912       C1184   1.493       .  S
C913        C932   1.478       .  S
C913        H917   1.082       .  S
N914        C925   1.342       .  A
N914       Co924   2.069       .  S
C918        N934   1.329       .  A
C918        C930   1.487       .  S
C918       C1195   1.487       .  S
Co920      N1312   2.120   1_554  S
Co920      N1318   2.131   1_554  S
Co920      Cl931   2.528       .  S
N921        C932   1.335       .  A
C922       C1179   1.489       .  S
Co924     Cl1345   2.368       .  S
Cl931     Co1303   2.507   1_554  S
Cl931     Co1338   2.370   1_554  S
C932       C1203   1.488       .  S
C935        N953   1.344       .  A
C935        C972   1.460       .  S
C935       C1224   1.490       .  S
N936        N953   1.322       .  A
N936        N958   1.312       .  A
N936       Co973   2.102       .  S
C937        N962   1.353       .  A
C937        C975   1.473       .  S
C937        H982   1.082       .  S
H938        C979   1.081       .  S
C939        N963   1.324       .  A
C939        C943   1.437       .  S
C939        H968   1.082       .  S
Co940       N958   2.068       .  S
Co940       N948   2.029       .  S
Co940      Cl984   2.392       .  S
N941        C979   1.356       .  A
N941        N948   1.325       .  A
N941       Co942   2.133       .  S
Co942       N945   2.128       .  S
Co942      Cl984   2.507       .  S
C943        N981   1.361       .  A
C943       C1171   1.473       .  S
N944        N951   1.316       .  A
N944        N974   1.331       .  A
N944       Co977   2.068       .  S
N945        N963   1.322       .  A
N945        N981   1.332       .  A
N946        C975   1.331       .  A
N946        N956   1.311       .  A
H947        C972   1.079       .  S
N948        N969   1.313       .  A
N949        N967   1.324       .  A
N949        N954   1.333       .  A
C950        N954   1.361       .  A
C950        C978   1.438       .  S
C950       C1163   1.477       .  S
N951        C966   1.344       .  A
N951       Co973   2.114       .  S
C952        N980   1.336       .  A
C952        C955   1.443       .  S
C952        H986   1.081       .  S
C955        N976   1.358       .  A
C955       C1220   1.485       .  S
N956        N962   1.325       .  A
N957        C983   1.344       .  A
N957        N959   1.316       .  A
N958        C972   1.348       .  A
N959        N987   1.329       .  A
H960        C983   1.068       .  S
H961        C978   1.082       .  S
N963       Co977   2.035       .  S
N964        N976   1.333       .  A
N964        N980   1.312       .  A
C965        N969   1.328       .  A
C965        C979   1.478       .  S
C965       C1175   1.475       .  S
C966        C985   1.446       .  S
C966        H970   1.069       .  S
N967        C978   1.329       .  A
C971        N987   1.349       .  A
C971        C983   1.461       .  S
C971       C1180   1.495       .  S
Co973      Cl984   2.483       .  S
N974        C985   1.347       .  A
C975       C1168   1.471       .  S
Co977      Cl984   2.397       .  S
C985       C1183   1.484       .  S
C988       N1006   1.363       .  A
C988       C1025   1.436       .  S
C988       C1159   1.478       .  S
N989       N1006   1.334       .  A
N989       N1011   1.324       .  A
N989      Co1026   2.136       .  S
C990       N1015   1.342       .  A
C990       C1028   1.444       .  S
C990       H1035   1.068       .  S
H991       C1032   1.065       .  S
C992       N1016   1.351       .  A
C992        C996   1.465       .  S
C992       H1021   1.080       .  S
Co993      N1011   2.044       .  S
Co993      N1001   2.078       .  S
Co993     Cl1037   2.394       .  S
N994       C1032   1.340       .  A
N994       N1001   1.314       .  A
N994       Co995   2.090       .  S
Co995       N998   2.094       .  S
Co995     Cl1037   2.499       .  S
C996       N1034   1.345       .  A
C996       C1192   1.497       .  S
N997       N1004   1.326       .  A
N997       N1027   1.315       .  A
N997      Co1030   2.048       .  S
N998       N1016   1.313       .  A
N998       N1034   1.323       .  A
N999       C1028   1.351       .  A
N999       N1009   1.333       .  A
H1000      C1025   1.081       .  S
N1001      N1022   1.330       .  A
N1002      N1020   1.313       .  A
N1002      N1007   1.322       .  A
C1003      N1007   1.343       .  A
C1003      C1031   1.460       .  S
C1003      C1188   1.489       .  S
N1004      C1019   1.355       .  A
N1004     Co1026   2.130       .  S
C1005      N1033   1.328       .  A
C1005      C1008   1.436       .  S
C1005      H1039   1.082       .  S
C1008      N1029   1.362       .  A
C1008      C1151   1.481       .  S
N1009      N1015   1.315       .  A
N1010      C1036   1.354       .  A
N1010      N1012   1.326       .  A
N1011      C1025   1.328       .  A
N1012      N1040   1.313       .  A
H1013      C1036   1.081       .  S
H1014      C1031   1.079       .  S
N1016     Co1030   2.086       .  S
N1017      N1029   1.334       .  A
N1017      N1033   1.324       .  A
C1018      N1022   1.350       .  A
C1018      C1032   1.452       .  S
C1018      C1215   1.490       .  S
C1019      C1038   1.476       .  S
C1019      H1023   1.082       .  S
N1020      C1031   1.349       .  A
C1024      N1040   1.330       .  A
C1024      C1036   1.477       .  S
C1024      C1147   1.472       .  S
Co1026    Cl1037   2.494       .  S
N1027      C1038   1.333       .  A
C1028      C1211   1.485       .  S
Co1030    Cl1037   2.391       .  S
C1038      C1155   1.478       .  S
C1041      N1059   1.352       .  A
C1041      C1078   1.446       .  S
C1041      C1239   1.482       .  S
N1042      N1059   1.329       .  A
N1042      N1064   1.314       .  A
N1042     Co2735   2.119       .  S
C1043      N1068   1.355       .  A
C1043      C1081   1.478       .  S
C1043      H1088   1.081       .  S
H1044      C1085   1.082       .  S
C1045      N1069   1.327       .  A
C1045      C1049   1.436       .  S
C1045      H1074   1.081       .  S
Co1046     N1064   2.054       .  S
Co1046     N1054   2.027       .  S
Co1046     N1086   2.066       .  S
Co1046     N1062   2.055       .  S
Co1046    Cl2746   2.389       .  S
N1047      C1085   1.356       .  A
N1047      N1054   1.323       .  A
N1047     Co2704   2.129   1_455  S
Co1048     N2703   2.121       .  S
Co1048     N1051   2.129       .  S
Co1048     N2724   2.128       .  S
Co1048     N1055   2.130       .  S
Co1048    Cl1090   2.503       .  S
C1049      N1087   1.361       .  A
C1049      C1172   1.472       .  S
N1050      N1057   1.315       .  A
N1050      N1080   1.319       .  A
N1050     Co1083   2.048       .  S
N1051      N1069   1.324       .  A
N1051      N1087   1.332       .  A
N1052      C1081   1.332       .  A
N1052      N1062   1.315       .  A
H1053      C1078   1.080       .  S
N1054      N1075   1.311       .  A
N1055      N1073   1.324       .  A
N1055      N1060   1.334       .  A
C1056      N1060   1.361       .  A
C1056      C1084   1.436       .  S
C1056      C1156   1.479       .  S
N1057      C1072   1.354       .  A
N1057     Co1079   2.110       .  S
C1058      N1086   1.334       .  A
C1058      C1061   1.442       .  S
C1058      H1092   1.079       .  S
C1061      N1082   1.353       .  A
C1061      C1236   1.477       .  S
N1062      N1068   1.326       .  A
N1063      C1089   1.359       .  A
N1063      N1065   1.316       .  A
N1063     Co1079   2.125       .  S
N1064      C1078   1.342       .  A
N1065      N1093   1.318       .  A
N1065     Co1083   2.045       .  S
H1066      C1089   1.075       .  S
H1067      C1084   1.082       .  S
N1068     Co2704   2.128   1_455  S
N1069     Co1083   2.040       .  S
N1070      N1082   1.333       .  A
N1070      N1086   1.315       .  A
N1070     Co2735   2.100       .  S
C1071      N1075   1.328       .  A
C1071      C1085   1.478       .  S
C1071      C1176   1.476       .  S
C1072      C1091   1.460       .  S
C1072      H1076   1.070       .  S
N1073      C1084   1.329       .  A
N1073     Co1083   2.038       .  S
C1077      N1093   1.338       .  A
C1077      C1089   1.464       .  S
C1077      C1204   1.474       .  S
Co1079     N2698   2.129       .  S
Co1079     N2726   2.101       .  S
Co1079    Cl1090   2.484       .  S
N1080      C1091   1.338       .  A
C1081      C1160   1.476       .  S
Co1083    Cl1090   2.392       .  S
Cl1090    Co2702   2.387       .  S
C1091      C1208   1.473       .  S
C1094      N1112   1.359       .  A
C1094      C1131   1.435       .  S
C1094      C1167   1.473       .  S
N1095      N1112   1.332       .  A
N1095      N1117   1.323       .  A
N1095     Co1132   2.122       .  S
C1096      N1121   1.353       .  A
C1096      C1134   1.459       .  S
C1096      H1141   1.070       .  S
H1097      C1138   1.074       .  S
C1098      N1122   1.336       .  A
C1098      C1102   1.444       .  S
C1098      H1127   1.079       .  S
Co1099     N1117   2.035       .  S
Co1099     N1107   2.053       .  S
Co1099     N1139   2.044       .  S
Co1099     N1115   2.049       .  S
Co1099    Cl2799   2.391       .  S
N1100      C1138   1.360       .  A
N1100      N1107   1.316       .  A
N1100     Co2757   2.131   1_455  S
Co1101     N2756   2.120       .  S
Co1101     N1104   2.100       .  S
Co1101     N2777   2.116       .  S
Co1101     N1108   2.124       .  S
Co1101    Cl1143   2.488       .  S
C1102      N1140   1.353       .  A
C1102      C1199   1.480       .  S
N1103      N1110   1.326       .  A
N1103      N1133   1.316       .  A
N1103     Co1136   2.058       .  S
N1104      N1122   1.316       .  A
N1104      N1140   1.334       .  A
N1105      C1134   1.340       .  A
N1105      N1115   1.321       .  A
H1106      C1131   1.082       .  S
N1107      N1128   1.321       .  A
N1108      N1126   1.316       .  A
N1108      N1113   1.331       .  A
C1109      N1113   1.352       .  A
C1109      C1137   1.447       .  S
C1109      C1196   1.487       .  S
N1110      C1125   1.354       .  A
N1110     Co2788   2.132       .  S
C1111      N1139   1.327       .  A
C1111      C1114   1.435       .  S
C1111      H1145   1.081       .  S
C1114      N1135   1.364       .  A
C1114      C1152   1.481       .  S
N1115      N1121   1.314       .  A
N1116      C1142   1.354       .  A
N1116      N1118   1.323       .  A
N1116     Co2788   2.121       .  S
N1117      C1131   1.325       .  A
N1118      N1146   1.313       .  A
N1118     Co1136   2.033       .  S
H1119      C1142   1.082       .  S
H1120      C1137   1.079       .  S
N1121     Co2757   2.110   1_455  S
N1122     Co1136   2.072       .  S
N1123      N1135   1.336       .  A
N1123      N1139   1.324       .  A
N1123     Co1132   2.137       .  S
C1124      N1128   1.340       .  A
C1124      C1138   1.463       .  S
C1124      C1231   1.482       .  S
C1125      C1144   1.477       .  S
C1125      H1129   1.081       .  S
N1126      C1137   1.344       .  A
N1126     Co1136   2.061       .  S
C1130      N1146   1.330       .  A
C1130      C1142   1.474       .  S
C1130      C1148   1.474       .  S
Co1132     N2766   2.136   1_455  S
Co1132     N2772   2.127   1_455  S
Co1132    Cl2799   2.494       .  S
N1133      C1144   1.334       .  A
C1134      C1227   1.476       .  S
Co1136    Cl1143   2.393       .  S
Cl1143    Co2755   2.387       .  S
Cl1143    Co2788   2.502       .  S
C1144      C1164   1.477       .  S
C1147      C1148   1.363       .  D
C1147      H1149   1.086       .  S
C1148      H1150   1.086       .  S
C1151      C1152   1.364       .  D
C1151      H1153   1.085       .  S
C1152      H1154   1.086       .  S
C1155      C1156   1.362       .  D
C1155      H1157   1.086       .  S
C1156      H1158   1.086       .  S
C1159      C1160   1.362       .  D
C1159      H1161   1.086       .  S
C1160      H1162   1.085       .  S
C1163      C1164   1.360       .  D
C1163      H1165   1.086       .  S
C1164      H1166   1.085       .  S
C1167      C1168   1.362       .  D
C1167      H1169   1.086       .  S
C1168      H1170   1.086       .  S
C1171      C1172   1.360       .  D
C1171      H1173   1.085       .  S
C1172      H1174   1.085       .  S
C1175      C1176   1.366       .  D
C1175      H1177   1.086       .  S
C1176      H1178   1.086       .  S
C1179      C1180   1.349       .  D
C1179      H1181   1.080       .  S
C1180      H1182   1.086       .  S
C1183      C1184   1.348       .  D
C1183      H1185   1.080       .  S
C1184      H1186   1.086       .  S
C1187      C1188   1.346       .  D
C1187      H1189   1.085       .  S
C1188      H1190   1.085       .  S
C1191      C1192   1.343       .  D
C1191      H1193   1.086       .  S
C1192      H1194   1.082       .  S
C1195      C1196   1.362       .  D
C1195      H1197   1.086       .  S
C1196      H1198   1.087       .  S
C1199      C1200   1.354       .  D
C1199      H1201   1.084       .  S
C1200      H1202   1.084       .  S
C1203      C1204   1.352       .  D
C1203      H1205   1.082       .  S
C1204      H1206   1.088       .  S
C1207      C1208   1.357       .  D
C1207      H1209   1.086       .  S
C1208      H1210   1.082       .  S
C1211      C1212   1.345       .  D
C1211      H1213   1.082       .  S
C1212      H1214   1.086       .  S
C1215      C1216   1.352       .  D
C1215      H1217   1.086       .  S
C1216      H1218   1.083       .  S
C1219      C1220   1.345       .  D
C1219      H1221   1.081       .  S
C1220      H1222   1.085       .  S
C1223      C1224   1.347       .  D
C1223      H1225   1.085       .  S
C1224      H1226   1.086       .  S
C1227      C1228   1.357       .  D
C1227      H1229   1.084       .  S
C1228      H1230   1.086       .  S
C1231      C1232   1.358       .  D
C1231      H1233   1.086       .  S
C1232      H1234   1.086       .  S
C1235      C1236   1.353       .  D
C1235      H1237   1.082       .  S
C1236      H1238   1.084       .  S
C1239      C1240   1.359       .  D
C1239      H1241   1.086       .  S
C1240      H1242   1.085       .  S
C1243      N1261   1.355       .  A
C1243      C1280   1.448       .  S
C1243      C1637   1.482       .  S
N1244      N1261   1.330       .  A
N1244      N1266   1.315       .  A
C1245      N1270   1.355       .  A
C1245      C1283   1.477       .  S
C1245      H1290   1.082       .  S
H1246      C1287   1.082       .  S
C1247      N1271   1.325       .  A
C1247      C1251   1.446       .  S
C1247      H1276   1.082       .  S
Co1248     N1266   2.065       .  S
Co1248     N1256   2.052       .  S
Co1248     N1288   2.050       .  S
Co1248     N1264   2.066       .  S
Co1248    Cl1292   2.368       .  S
N1249      C1287   1.361       .  A
N1249      N1256   1.325       .  A
N1249     Co1250   2.140       .  S
Co1250     N1270   2.111       .  S
Co1250    Cl1292   2.531       .  S
C1251      N1289   1.364       .  A
C1251      C1649   1.496       .  S
N1252      N1259   1.313       .  A
N1252      N1282   1.328       .  A
N1252     Co1285   2.073       .  S
N1253      N1271   1.321       .  A
N1253      N1289   1.335       .  A
N1254      C1283   1.336       .  A
N1254      N1264   1.310       .  A
H1255      C1280   1.079       .  S
N1256      N1277   1.313       .  A
N1257      N1275   1.321       .  A
N1257      N1262   1.339       .  A
C1258      N1262   1.370       .  A
C1258      C1286   1.441       .  S
C1258      C1642   1.499       .  S
N1259      C1274   1.344       .  A
N1259     Co1281   2.090   1_556  S
C1260      N1288   1.335       .  A
C1260      C1263   1.444       .  S
C1260      H1294   1.081       .  S
C1263      N1284   1.361       .  A
C1263      C1633   1.487       .  S
N1264      N1270   1.324       .  A
N1265      C1291   1.343       .  A
N1265      N1267   1.313       .  A
N1265     Co1281   2.088   1_556  S
N1266      C1280   1.340       .  A
N1267      N1295   1.329       .  A
N1267     Co1285   2.087       .  S
H1268      C1291   1.072       .  S
H1269      C1286   1.081       .  S
N1271     Co1285   2.054       .  S
N1272      N1284   1.336       .  A
N1272      N1288   1.313       .  A
C1273      N1277   1.330       .  A
C1273      C1287   1.485       .  S
C1273      C1654   1.487       .  S
C1274      C1293   1.457       .  S
C1274      H1278   1.076       .  S
N1275      C1286   1.319       .  A
N1275     Co1285   2.046       .  S
C1279      N1295   1.350       .  A
C1279      C1291   1.461       .  S
C1279      C1626   1.493       .  S
N1282      C1293   1.348       .  A
C1283      C1646   1.484       .  S
C1293      C1630   1.482       .  S
C1296      N1314   1.368       .  A
C1296      C1333   1.444       .  S
C1296      C1621   1.498       .  S
N1297      N1314   1.338       .  A
N1297      N1319   1.322       .  A
N1297     Co1334   2.135       .  S
C1298      N1323   1.346       .  A
C1298      C1336   1.459       .  S
C1298      H1343   1.073       .  S
H1299      C1340   1.070       .  S
C1300      N1324   1.335       .  A
C1300      C1304   1.442       .  S
C1300      H1329   1.080       .  S
Co1301     N1319   2.050       .  S
Co1301     N1309   2.083       .  S
Co1301     N1341   2.058       .  S
Co1301     N1317   2.069       .  S
Co1301    Cl1345   2.357       .  S
N1302      C1340   1.342       .  A
N1302      N1309   1.314       .  A
Co1303     N1306   2.134       .  S
Co1303     N1310   2.110       .  S
C1304      N1342   1.363       .  A
C1304      C1605   1.491       .  S
N1305      N1312   1.324       .  A
N1305      N1335   1.310       .  A
N1305     Co1338   2.062       .  S
N1306      N1324   1.313       .  A
N1306      N1342   1.337       .  A
N1307      C1336   1.348       .  A
N1307      N1317   1.330       .  A
H1308      C1333   1.081       .  S
N1309      N1330   1.329       .  A
N1310      N1328   1.314       .  A
N1310      N1315   1.329       .  A
C1311      N1315   1.353       .  A
C1311      C1339   1.449       .  S
C1311      C1601   1.486       .  S
N1312      C1327   1.357       .  A
C1313      N1341   1.326       .  A
C1313      C1316   1.446       .  S
C1313      H1347   1.081       .  S
C1316      N1337   1.366       .  A
C1316      C1614   1.500       .  S
N1317      N1323   1.314       .  A
N1318      C1344   1.359       .  A
N1318      N1320   1.325       .  A
N1319      C1333   1.322       .  A
N1320      N1348   1.313       .  A
N1320     Co1338   2.056       .  S
H1321      C1344   1.081       .  S
H1322      C1339   1.079       .  S
N1324     Co1338   2.051       .  S
N1325      N1337   1.337       .  A
N1325      N1341   1.323       .  A
N1325     Co1334   2.130       .  S
C1326      N1330   1.349       .  A
C1326      C1340   1.463       .  S
C1326      C1598   1.492       .  S
C1327      C1346   1.479       .  S
C1327      H1331   1.082       .  S
N1328      C1339   1.342       .  A
N1328     Co1338   2.065       .  S
C1332      N1348   1.331       .  A
C1332      C1344   1.483       .  S
C1332      C1609   1.483       .  S
Co1334    Cl1345   2.532       .  S
N1335      C1346   1.335       .  A
C1336      C1593   1.489       .  S
C1346      C1617   1.492       .  S
C1349      N1367   1.342       .  A
C1349      C1386   1.459       .  S
C1349      C1638   1.484       .  S
N1350      N1367   1.321       .  A
N1350      N1372   1.313       .  A
N1350     Co1387   2.085       .  S
C1351      N1376   1.354       .  A
C1351      C1389   1.472       .  S
C1351      H1396   1.082       .  S
H1352      C1393   1.081       .  S
C1353      N1377   1.325       .  A
C1353      C1357   1.438       .  S
C1353      H1382   1.082       .  S
Co1354     N1372   2.078       .  S
Co1354     N1362   2.038       .  S
Co1354    Cl1398   2.401       .  S
N1355      C1393   1.354       .  A
N1355      N1362   1.325       .  A
N1355     Co1356   2.132       .  S
Co1356     N1359   2.129       .  S
Co1356    Cl1398   2.490       .  S
C1357      N1395   1.362       .  A
C1357      C1585   1.476       .  S
N1358      N1365   1.315       .  A
N1358      N1388   1.332       .  A
N1358     Co1391   2.074       .  S
N1359      N1377   1.322       .  A
N1359      N1395   1.333       .  A
N1360      C1389   1.333       .  A
N1360      N1370   1.315       .  A
H1361      C1386   1.078       .  S
N1362      N1383   1.314       .  A
N1363      N1381   1.325       .  A
N1363      N1368   1.333       .  A
C1364      N1368   1.362       .  A
C1364      C1392   1.436       .  S
C1364      C1577   1.475       .  S
N1365      C1380   1.342       .  A
N1365     Co1387   2.106       .  S
C1366      N1394   1.346       .  A
C1366      C1369   1.459       .  S
C1366      H1400   1.080       .  S
C1369      N1390   1.348       .  A
C1369      C1634   1.493       .  S
N1370      N1376   1.326       .  A
N1371      C1397   1.341       .  A
N1371      N1373   1.314       .  A
N1372      C1386   1.348       .  A
N1373      N1401   1.331       .  A
H1374      C1397   1.065       .  S
H1375      C1392   1.081       .  S
N1377     Co1391   2.037       .  S
N1378      N1390   1.324       .  A
N1378      N1394   1.312       .  A
C1379      N1383   1.330       .  A
C1379      C1393   1.477       .  S
C1379      C1589   1.472       .  S
C1380      C1399   1.446       .  S
C1380      H1384   1.068       .  S
N1381      C1392   1.327       .  A
C1385      N1401   1.352       .  A
C1385      C1397   1.454       .  S
C1385      C1594   1.496       .  S
Co1387    Cl1398   2.493       .  S
N1388      C1399   1.349       .  A
C1389      C1582   1.477       .  S
Co1391    Cl1398   2.401       .  S
C1399      C1597   1.483       .  S
C1402      N1420   1.364       .  A
C1402      C1439   1.437       .  S
C1402      C1573   1.481       .  S
N1403      N1420   1.335       .  A
N1403      N1425   1.324       .  A
N1403     Co1440   2.137       .  S
C1404      N1429   1.345       .  A
C1404      C1442   1.452       .  S
C1404      H1449   1.071       .  S
H1405      C1446   1.067       .  S
C1406      N1430   1.350       .  A
C1406      C1410   1.464       .  S
C1406      H1435   1.080       .  S
Co1407     N1425   2.045       .  S
Co1407     N1415   2.081       .  S
Co1407    Cl1451   2.392       .  S
N1408      C1446   1.341       .  A
N1408      N1415   1.314       .  A
N1408     Co1409   2.091       .  S
Co1409     N1412   2.093       .  S
Co1409    Cl1451   2.501       .  S
C1410      N1448   1.345       .  A
C1410      C1606   1.495       .  S
N1411      N1418   1.327       .  A
N1411      N1441   1.315       .  A
N1411     Co1444   2.047       .  S
N1412      N1430   1.312       .  A
N1412      N1448   1.322       .  A
N1413      C1442   1.348       .  A
N1413      N1423   1.330       .  A
H1414      C1439   1.081       .  S
N1415      N1436   1.329       .  A
N1416      N1434   1.316       .  A
N1416      N1421   1.324       .  A
C1417      N1421   1.344       .  A
C1417      C1445   1.460       .  S
C1417      C1602   1.488       .  S
N1418      C1433   1.353       .  A
N1418     Co1440   2.130       .  S
C1419      N1447   1.325       .  A
C1419      C1422   1.437       .  S
C1419      H1453   1.082       .  S
C1422      N1443   1.361       .  A
C1422      C1565   1.475       .  S
N1423      N1429   1.314       .  A
N1424      C1450   1.354       .  A
N1424      N1426   1.325       .  A
N1425      C1439   1.328       .  A
N1426      N1454   1.314       .  A
H1427      C1450   1.081       .  S
H1428      C1445   1.079       .  S
N1430     Co1444   2.079       .  S
N1431      N1443   1.332       .  A
N1431      N1447   1.322       .  A
C1432      N1436   1.349       .  A
C1432      C1446   1.455       .  S
C1432      C1629   1.489       .  S
C1433      C1452   1.474       .  S
C1433      H1437   1.082       .  S
N1434      C1445   1.348       .  A
C1438      N1454   1.330       .  A
C1438      C1450   1.476       .  S
C1438      C1561   1.473       .  S
Co1440    Cl1451   2.493       .  S
N1441      C1452   1.333       .  A
C1442      C1625   1.486       .  S
Co1444    Cl1451   2.398       .  S
C1452      C1569   1.474       .  S
C1455      N1473   1.352       .  A
C1455      C1492   1.446       .  S
C1455      C1653   1.486       .  S
N1456      N1473   1.331       .  A
N1456      N1478   1.315       .  A
N1456     Co3149   2.118       .  S
C1457      N1482   1.356       .  A
C1457      C1495   1.479       .  S
C1457      H1502   1.081       .  S
H1458      C1499   1.081       .  S
C1459      N1483   1.330       .  A
C1459      C1463   1.438       .  S
C1459      H1488   1.082       .  S
Co1460     N1478   2.063       .  S
Co1460     N1468   2.033       .  S
Co1460     N1500   2.074       .  S
Co1460     N1476   2.054       .  S
Co1460    Cl3160   2.394       .  S
N1461      C1499   1.354       .  A
N1461      N1468   1.324       .  A
N1461     Co3118   2.130   1_455  S
Co1462     N3117   2.116       .  S
Co1462     N1465   2.131       .  S
Co1462     N3138   2.125       .  S
Co1462     N1469   2.124       .  S
Co1462    Cl1504   2.499       .  S
C1463      N1501   1.361       .  A
C1463      C1586   1.474       .  S
N1464      N1471   1.316       .  A
N1464      N1494   1.320       .  A
N1464     Co1497   2.055       .  S
N1465      N1483   1.324       .  A
N1465      N1501   1.332       .  A
N1466      C1495   1.332       .  A
N1466      N1476   1.317       .  A
H1467      C1492   1.079       .  S
N1468      N1489   1.312       .  A
N1469      N1487   1.323       .  A
N1469      N1474   1.332       .  A
C1470      N1474   1.360       .  A
C1470      C1498   1.438       .  S
C1470      C1570   1.475       .  S
N1471      C1486   1.353       .  A
N1471     Co1493   2.114       .  S
C1472      N1500   1.338       .  A
C1472      C1475   1.446       .  S
C1472      H1506   1.078       .  S
C1475      N1496   1.351       .  A
C1475      C1650   1.482       .  S
N1476      N1482   1.327       .  A
N1477      C1503   1.359       .  A
N1477      N1479   1.315       .  A
N1477     Co1493   2.120       .  S
N1478      C1492   1.343       .  A
N1479      N1507   1.318       .  A
N1479     Co1497   2.048       .  S
H1480      C1503   1.075       .  S
H1481      C1498   1.082       .  S
N1482     Co3118   2.140   1_455  S
N1483     Co1497   2.045       .  S
N1484      N1496   1.333       .  A
N1484      N1500   1.316       .  A
N1484     Co3149   2.102       .  S
C1485      N1489   1.329       .  A
C1485      C1499   1.477       .  S
C1485      C1590   1.474       .  S
C1486      C1505   1.459       .  S
C1486      H1490   1.070       .  S
N1487      C1498   1.327       .  A
N1487     Co1497   2.040       .  S
C1491      N1507   1.338       .  A
C1491      C1503   1.463       .  S
C1491      C1618   1.474       .  S
Co1493     N3112   2.133       .  S
Co1493     N3140   2.107       .  S
Co1493    Cl1504   2.484       .  S
N1494      C1505   1.341       .  A
C1495      C1574   1.479       .  S
Co1497    Cl1504   2.396       .  S
Cl1504    Co3116   2.388       .  S
C1505      C1622   1.477       .  S
C1508      N1526   1.362       .  A
C1508      C1545   1.436       .  S
C1508      C1581   1.478       .  S
N1509      N1526   1.334       .  A
N1509      N1531   1.322       .  A
N1509     Co1546   2.130       .  S
C1510      N1535   1.354       .  A
C1510      C1548   1.459       .  S
C1510      H1555   1.071       .  S
H1511      C1552   1.074       .  S
C1512      N1536   1.339       .  A
C1512      C1516   1.447       .  S
C1512      H1541   1.079       .  S
Co1513     N1531   2.035       .  S
Co1513     N1521   2.046       .  S
Co1513     N1553   2.043       .  S
Co1513     N1529   2.050       .  S
Co1513    Cl3213   2.386   1_455  S
N1514      C1552   1.358       .  A
N1514      N1521   1.315       .  A
N1514     Co3171   2.119   1_455  S
Co1515     N3170   2.116       .  S
Co1515     N1518   2.098       .  S
Co1515     N3191   2.115       .  S
Co1515     N1522   2.119       .  S
Co1515    Cl1557   2.501       .  S
C1516      N1554   1.352       .  A
C1516      C1613   1.484       .  S
N1517      N1524   1.326       .  A
N1517      N1547   1.314       .  A
N1517     Co1550   2.051       .  S
N1518      N1536   1.315       .  A
N1518      N1554   1.333       .  A
N1519      C1548   1.340       .  A
N1519      N1529   1.319       .  A
H1520      C1545   1.082       .  S
N1521      N1542   1.318       .  A
N1522      N1540   1.315       .  A
N1522      N1527   1.330       .  A
C1523      N1527   1.352       .  A
C1523      C1551   1.445       .  S
C1523      C1610   1.483       .  S
N1524      C1539   1.355       .  A
N1524     Co3202   2.133       .  S
C1525      N1553   1.327       .  A
C1525      C1528   1.436       .  S
C1525      H1559   1.081       .  S
C1528      N1549   1.361       .  A
C1528      C1566   1.474       .  S
N1529      N1535   1.315       .  A
N1530      C1556   1.356       .  A
N1530      N1532   1.324       .  A
N1530     Co3202   2.128       .  S
N1531      C1545   1.325       .  A
N1532      N1560   1.312       .  A
N1532     Co1550   2.035       .  S
H1533      C1556   1.082       .  S
H1534      C1551   1.079       .  S
N1535     Co3171   2.111   1_455  S
N1536     Co1550   2.078       .  S
N1537      N1549   1.333       .  A
N1537      N1553   1.324       .  A
N1537     Co1546   2.127       .  S
C1538      N1542   1.337       .  A
C1538      C1552   1.462       .  S
C1538      C1645   1.471       .  S
C1539      C1558   1.478       .  S
C1539      H1543   1.082       .  S
N1540      C1551   1.343       .  A
N1540     Co1550   2.057       .  S
C1544      N1560   1.329       .  A
C1544      C1556   1.477       .  S
C1544      C1562   1.476       .  S
Co1546     N3180   2.126   1_455  S
Co1546     N3186   2.134   1_455  S
Co1546    Cl3213   2.505   1_455  S
N1547      C1558   1.331       .  A
C1548      C1641   1.475       .  S
Co1550    Cl1557   2.385       .  S
Cl1557    Co3169   2.385       .  S
Cl1557    Co3202   2.499       .  S
C1558      C1578   1.474       .  S
C1561      C1562   1.364       .  D
C1561      H1563   1.086       .  S
C1562      H1564   1.086       .  S
C1565      C1566   1.361       .  D
C1565      H1567   1.085       .  S
C1566      H1568   1.086       .  S
C1569      C1570   1.360       .  D
C1569      H1571   1.086       .  S
C1570      H1572   1.086       .  S
C1573      C1574   1.363       .  D
C1573      H1575   1.086       .  S
C1574      H1576   1.085       .  S
C1577      C1578   1.361       .  D
C1577      H1579   1.086       .  S
C1578      H1580   1.085       .  S
C1581      C1582   1.363       .  D
C1581      H1583   1.086       .  S
C1582      H1584   1.086       .  S
C1585      C1586   1.360       .  D
C1585      H1587   1.085       .  S
C1586      H1588   1.086       .  S
C1589      C1590   1.363       .  D
C1589      H1591   1.086       .  S
C1590      H1592   1.086       .  S
C1593      C1594   1.355       .  D
C1593      H1595   1.084       .  S
C1594      H1596   1.086       .  S
C1597      C1598   1.346       .  D
C1597      H1599   1.081       .  S
C1598      H1600   1.086       .  S
C1601      C1602   1.346       .  D
C1601      H1603   1.085       .  S
C1602      H1604   1.084       .  S
C1605      C1606   1.342       .  D
C1605      H1607   1.086       .  S
C1606      H1608   1.082       .  S
C1609      C1610   1.360       .  D
C1609      H1611   1.086       .  S
C1610      H1612   1.086       .  S
C1613      C1614   1.356       .  D
C1613      H1615   1.085       .  S
C1614      H1616   1.082       .  S
C1617      C1618   1.355       .  D
C1617      H1619   1.082       .  S
C1618      H1620   1.087       .  S
C1621      C1622   1.358       .  D
C1621      H1623   1.086       .  S
C1622      H1624   1.084       .  S
C1625      C1626   1.351       .  D
C1625      H1627   1.083       .  S
C1626      H1628   1.086       .  S
C1629      C1630   1.351       .  D
C1629      H1631   1.086       .  S
C1630      H1632   1.083       .  S
C1633      C1634   1.343       .  D
C1633      H1635   1.085       .  S
C1634      H1636   1.082       .  S
C1637      C1638   1.345       .  D
C1637      H1639   1.086       .  S
C1638      H1640   1.085       .  S
C1641      C1642   1.359       .  D
C1641      H1643   1.084       .  S
C1642      H1644   1.085       .  S
C1645      C1646   1.350       .  D
C1645      H1647   1.088       .  S
C1646      H1648   1.083       .  S
C1649      C1650   1.353       .  D
C1649      H1651   1.082       .  S
C1650      H1652   1.086       .  S
C1653      C1654   1.362       .  D
C1653      H1655   1.087       .  S
C1654      H1656   1.086       .  S
C1657      N1675   1.345       .  A
C1657      C1694   1.466       .  S
C1657      C2051   1.497       .  S
N1658      N1675   1.325       .  A
N1658      N1680   1.316       .  A
N1658     Co2109   2.083       .  S
C1659      N1684   1.349       .  A
C1659      C1697   1.475       .  S
C1659      H1704   1.082       .  S
H1660      C1701   1.082       .  S
C1661      N1685   1.326       .  A
C1661      C1665   1.447       .  S
C1661      H1690   1.081       .  S
Co1662     N1680   2.108       .  S
Co1662     N1670   2.046       .  S
Co1662     N1702   2.108       .  S
Co1662     N1678   2.070       .  S
Co1662    Cl1706   2.393   1_554  S
N1663      C1701   1.361       .  A
N1663      N1670   1.328       .  A
N1663     Co1664   2.160   1_554  S
Co1664     N2081   2.136       .  S
Co1664     N1684   2.156   1_556  S
Co1664     N2085   2.165       .  S
Co1664    Cl1706   2.526       .  S
C1665      N1703   1.365       .  A
C1665      C2063   1.498       .  S
N1666      N1673   1.313       .  A
N1666      N1696   1.328       .  A
N1666     Co1699   2.066       .  S
N1667      N1685   1.322       .  A
N1667      N1703   1.336       .  A
N1667     Co2078   2.130       .  S
N1668      C1697   1.339       .  A
N1668      N1678   1.331       .  A
H1669      C1694   1.079       .  S
N1670      N1691   1.315       .  A
N1671      N1689   1.322       .  A
N1671      N1676   1.344       .  A
N1671     Co2078   2.172       .  S
C1672      N1676   1.375       .  A
C1672      C1700   1.441       .  S
C1672      C2056   1.517       .  S
N1673      C1688   1.344       .  A
N1673     Co1695   2.100       .  S
C1674      N1702   1.350       .  A
C1674      C1677   1.470       .  S
C1674      H1708   1.081       .  S
C1677      N1698   1.344       .  A
C1677      C2047   1.491       .  S
N1678      N1684   1.333       .  A
N1679      C1705   1.346       .  A
N1679      N1681   1.315       .  A
N1679     Co1695   2.095       .  S
N1680      C1694   1.352       .  A
N1681      N1709   1.327       .  A
N1681     Co1699   2.079       .  S
H1682      C1705   1.073       .  S
H1683      C1700   1.081       .  S
N1685     Co1699   2.057       .  S
N1686      N1698   1.324       .  A
N1686      N1702   1.317       .  A
N1686     Co2109   2.080       .  S
C1687      N1691   1.332       .  A
C1687      C1701   1.485       .  S
C1687      C2068   1.489       .  S
C1688      C1707   1.454       .  S
C1688      H1692   1.071       .  S
N1689      C1700   1.329       .  A
N1689     Co1699   2.047       .  S
C1693      N1709   1.346       .  A
C1693      C1705   1.465       .  S
C1693      C2040   1.489       .  S
Co1695     N2072   2.101       .  S
Co1695     N2100   2.101       .  S
Co1695    Cl2120   2.507       .  S
N1696      C1707   1.349       .  A
C1697      C2060   1.491       .  S
Co1699    Cl2120   2.369       .  S
Cl1706    Co2109   2.517   1_556  S
Cl1706    Co2113   2.363       .  S
C1707      C2044   1.485       .  S
C1710      N1728   1.368       .  A
C1710      C1747   1.444       .  S
C1710      C2035   1.502       .  S
N1711      N1728   1.339       .  A
N1711      N1733   1.320       .  A
N1711     Co1748   2.138       .  S
C1712      N1737   1.352       .  A
C1712      C1750   1.469       .  S
C1712      H1757   1.076       .  S
H1713      C1754   1.076       .  S
C1714      N1738   1.337       .  A
C1714      C1718   1.445       .  S
C1714      H1743   1.081       .  S
Co1715     N1733   2.045       .  S
Co1715     N1723   2.070       .  S
Co1715     N1755   2.060       .  S
Co1715     N1731   2.057       .  S
Co1715    Cl1759   2.357       .  S
N1716      C1754   1.343       .  A
N1716      N1723   1.313       .  A
N1716     Co2131   2.089       .  S
Co1717     N2130   2.085       .  S
Co1717     N1720   2.123       .  S
Co1717     N2151   2.097       .  S
Co1717     N1724   2.114       .  S
Co1717    Cl2173   2.508       .  S
C1718      N1756   1.359       .  A
C1718      C2019   1.487       .  S
N1719      N1726   1.325       .  A
N1719      N1749   1.310       .  A
N1719     Co1752   2.063       .  S
N1720      N1738   1.313       .  A
N1720      N1756   1.334       .  A
N1721      C1750   1.341       .  A
N1721      N1731   1.325       .  A
H1722      C1747   1.081       .  S
N1723      N1744   1.326       .  A
N1724      N1742   1.315       .  A
N1724      N1729   1.331       .  A
C1725      N1729   1.355       .  A
C1725      C1753   1.449       .  S
C1725      C2015   1.488       .  S
N1726      C1741   1.358       .  A
N1726     Co2162   2.125       .  S
C1727      N1755   1.320       .  A
C1727      C1730   1.445       .  S
C1727      H1761   1.082       .  S
C1730      N1751   1.363       .  A
C1730      C2028   1.491       .  S
N1731      N1737   1.314       .  A
N1732      C1758   1.361       .  A
N1732      N1734   1.326       .  A
N1732     Co2162   2.139       .  S
N1733      C1747   1.322       .  A
N1734      N1762   1.314       .  A
N1734     Co1752   2.056       .  S
H1735      C1758   1.082       .  S
H1736      C1753   1.079       .  S
N1737     Co2131   2.122       .  S
N1738     Co1752   2.053       .  S
N1739      N1751   1.335       .  A
N1739      N1755   1.322       .  A
N1739     Co1748   2.112       .  S
C1740      N1744   1.347       .  A
C1740      C1754   1.464       .  S
C1740      C2012   1.484       .  S
C1741      C1760   1.480       .  S
C1741      H1745   1.082       .  S
N1742      C1753   1.341       .  A
N1742     Co1752   2.069       .  S
C1746      N1762   1.331       .  A
C1746      C1758   1.485       .  S
C1746      C2023   1.488       .  S
Co1748     N2140   2.112   1_554  S
Co1748     N2146   2.149   1_554  S
Co1748    Cl1759   2.541       .  S
N1749      C1760   1.335       .  A
C1750      C2007   1.489       .  S
Co1752    Cl2173   2.376       .  S
Cl1759    Co2131   2.495       .  S
Cl1759    Co2166   2.372   1_554  S
C1760      C2031   1.494       .  S
C1763      N1781   1.356       .  A
C1763      C1800   1.447       .  S
C1763      C2052   1.493       .  S
N1764      N1781   1.333       .  A
N1764      N1786   1.313       .  A
N1764     Co1801   2.133       .  S
C1765      N1790   1.354       .  A
C1765      C1803   1.474       .  S
C1765      H1810   1.081       .  S
H1766      C1807   1.081       .  S
C1767      N1791   1.327       .  A
C1767      C1771   1.439       .  S
C1767      H1796   1.082       .  S
Co1768     N1786   2.056       .  S
Co1768     N1776   2.031       .  S
Co1768     N2636   2.042   1_545  S
Co1768     N2612   2.043   1_545  S
Co1768    Cl1812   2.394       .  S
N1769      C1807   1.357       .  A
N1769      N1776   1.324       .  A
N1769     Co1770   2.127       .  S
Co1770     N1773   2.130       .  S
Co1770     N2618   2.118   1_545  S
Co1770     N2605   2.141   1_545  S
Co1770    Cl1812   2.508       .  S
C1771      N1809   1.361       .  A
C1771      C1999   1.475       .  S
N1772      N1779   1.315       .  A
N1772      N1802   1.329       .  A
N1772     Co1805   2.066       .  S
N1773      N1791   1.324       .  A
N1773      N1809   1.332       .  A
N1774      C1803   1.330       .  A
N1774      N1784   1.310       .  A
H1775      C1800   1.080       .  S
N1776      N1797   1.310       .  A
N1777      N1795   1.324       .  A
N1777      N1782   1.334       .  A
N1777     Co2598   2.138       .  S
C1778      N1782   1.362       .  A
C1778      C1806   1.442       .  S
C1778      C1991   1.484       .  S
N1779      C1794   1.339       .  A
N1779     Co1801   2.094       .  S
C1780      N1808   1.336       .  A
C1780      C1783   1.442       .  S
C1780      H1814   1.081       .  S
C1783      N1804   1.360       .  A
C1783      C2048   1.486       .  S
N1784      N1790   1.325       .  A
N1784     Co2596   2.043       .  S
N1785      C1811   1.331       .  A
N1785      N1787   1.317       .  A
N1785     Co2629   2.079       .  S
N1786      C1800   1.341       .  A
N1787      N1815   1.334       .  A
N1787     Co2633   2.096       .  S
H1788      C1811   1.067       .  S
H1789      C1806   1.082       .  S
N1790     Co2598   2.115       .  S
N1791     Co1805   2.041       .  S
N1792      N1804   1.334       .  A
N1792      N1808   1.313       .  A
N1792     Co2629   2.136       .  S
C1793      N1797   1.327       .  A
C1793      C1807   1.478       .  S
C1793      C2003   1.475       .  S
C1794      C1813   1.446       .  S
C1794      H1798   1.069       .  S
N1795      C1806   1.333       .  A
N1795     Co2633   2.050       .  S
C1799      N1815   1.356       .  A
C1799      C1811   1.437       .  S
C1799      C2008   1.486       .  S
Co1801     N2613   2.101   1_545  S
Co1801     N2620   2.128   1_545  S
Co1801    Cl1812   2.469       .  S
N1802      C1813   1.348       .  A
C1803      C1996   1.470       .  S
Co1805     N2615   2.076   1_545  S
Co1805     N2623   2.036   1_545  S
Co1805    Cl1812   2.400       .  S
N1808     Co2596   2.042       .  S
C1813      C2011   1.477       .  S
C1816      N1834   1.361       .  A
C1816      C1853   1.436       .  S
C1816      C1987   1.474       .  S
N1817      N1834   1.332       .  A
N1817      N1839   1.323       .  A
N1817     Co1854   2.127       .  S
C1818      N1843   1.337       .  A
C1818      C1856   1.441       .  S
C1818      H1863   1.065       .  S
H1819      C1860   1.069       .  S
C1820      N1844   1.347       .  A
C1820      C1824   1.463       .  S
C1820      H1849   1.080       .  S
Co1821     N1839   2.036   1_565  S
Co1821     N1829   2.075   1_565  S
Co1821     N2689   2.036       .  S
Co1821     N2665   2.066       .  S
Co1821    Cl1865   2.399   1_565  S
N1822      C1860   1.346       .  A
N1822      N1829   1.315       .  A
N1822     Co1823   2.101       .  S
Co1823     N1826   2.090       .  S
Co1823     N2671   2.098   1_545  S
Co1823     N2658   2.100   1_545  S
Co1823    Cl1865   2.494       .  S
C1824      N1862   1.346       .  A
C1824      C2020   1.491       .  S
N1825      N1832   1.327       .  A
N1825      N1855   1.315       .  A
N1825     Co1858   2.042       .  S
N1826      N1844   1.314       .  A
N1826      N1862   1.324       .  A
N1827      C1856   1.352       .  A
N1827      N1837   1.333       .  A
H1828      C1853   1.081       .  S
N1829      N1850   1.328       .  A
N1830      N1848   1.314       .  A
N1830      N1835   1.323       .  A
N1830     Co2651   2.097       .  S
C1831      N1835   1.344       .  A
C1831      C1859   1.460       .  S
C1831      C2016   1.491       .  S
N1832      C1847   1.354       .  A
N1832     Co1854   2.135       .  S
C1833      N1861   1.329       .  A
C1833      C1836   1.440       .  S
C1833      H1867   1.082       .  S
C1836      N1857   1.363       .  A
C1836      C1979   1.482       .  S
N1837      N1843   1.314       .  A
N1837     Co2649   2.080       .  S
N1838      C1864   1.354       .  A
N1838      N1840   1.326       .  A
N1838     Co2682   2.127       .  S
N1839      C1853   1.326       .  A
N1840      N1868   1.316       .  A
N1840     Co2686   2.045       .  S
H1841      C1864   1.081       .  S
H1842      C1859   1.079       .  S
N1843     Co2651   2.087       .  S
N1844     Co1858   2.084       .  S
N1845      N1857   1.334       .  A
N1845      N1861   1.324       .  A
N1845     Co2682   2.138       .  S
C1846      N1850   1.347       .  A
C1846      C1860   1.459       .  S
C1846      C2043   1.489       .  S
C1847      C1866   1.475       .  S
C1847      H1851   1.081       .  S
N1848      C1859   1.349       .  A
N1848     Co2686   2.082       .  S
C1852      N1868   1.332       .  A
C1852      C1864   1.475       .  S
C1852      C1975   1.475       .  S
Co1854     N2666   2.126   1_545  S
Co1854     N2673   2.138   1_545  S
Co1854    Cl1865   2.488       .  S
N1855      C1866   1.333       .  A
C1856      C2039   1.482       .  S
Co1858     N2668   2.051   1_545  S
Co1858     N2676   2.075   1_545  S
Co1858    Cl1865   2.402       .  S
N1861     Co2649   2.046       .  S
C1866      C1983   1.476       .  S
C1869      N1887   1.352       .  A
C1869      C1906   1.451       .  S
C1869      C2067   1.485       .  S
N1870      N1887   1.329       .  A
N1870      N1892   1.313       .  A
C1871      N1896   1.355       .  A
C1871      C1909   1.479       .  S
C1871      H1916   1.081       .  S
H1872      C1913   1.082       .  S
C1873      N1897   1.329       .  A
C1873      C1877   1.438       .  S
C1873      H1902   1.082       .  S
Co1874     N1892   2.061       .  S
Co1874     N1882   2.034       .  S
Co1874     N1914   2.083       .  S
Co1874     N1890   2.049       .  S
N1875      C1913   1.353       .  A
N1875      N1882   1.324       .  A
Co1876     N1879   2.127       .  S
Co1876     N1883   2.129       .  S
Co1876    Cl1918   2.500   1_655  S
C1877      N1915   1.360       .  A
C1877      C2000   1.474       .  S
N1878      N1885   1.317       .  A
N1878      N1908   1.321       .  A
N1878     Co1911   2.058       .  S
N1879      N1897   1.324       .  A
N1879      N1915   1.332       .  A
N1880      C1909   1.329       .  A
N1880      N1890   1.312       .  A
H1881      C1906   1.080       .  S
N1882      N1903   1.312       .  A
N1883      N1901   1.324       .  A
N1883      N1888   1.333       .  A
C1884      N1888   1.360       .  A
C1884      C1912   1.438       .  S
C1884      C1984   1.477       .  S
N1885      C1900   1.357       .  A
N1885     Co1907   2.121   1_655  S
C1886      N1914   1.340       .  A
C1886      C1889   1.447       .  S
C1886      H1920   1.078       .  S
C1889      N1910   1.350       .  A
C1889      C2064   1.481       .  S
N1890      N1896   1.325       .  A
N1891      C1917   1.360       .  A
N1891      N1893   1.316       .  A
N1891     Co1907   2.125   1_655  S
N1892      C1906   1.345       .  A
N1893      N1921   1.319       .  A
N1893     Co1911   2.051       .  S
H1894      C1917   1.073       .  S
H1895      C1912   1.082       .  S
N1897     Co1911   2.044       .  S
N1898      N1910   1.332       .  A
N1898      N1914   1.315       .  A
C1899      N1903   1.330       .  A
C1899      C1913   1.472       .  S
C1899      C2004   1.473       .  S
C1900      C1919   1.460       .  S
C1900      H1904   1.069       .  S
N1901      C1912   1.328       .  A
N1901     Co1911   2.042       .  S
C1905      N1921   1.339       .  A
C1905      C1917   1.462       .  S
C1905      C2032   1.477       .  S
Co1907    Cl1918   2.482       .  S
N1908      C1919   1.341       .  A
C1909      C1988   1.472       .  S
Co1911    Cl1918   2.398   1_655  S
C1919      C2036   1.483       .  S
C1922      N1940   1.356       .  A
C1922      C1959   1.438       .  S
C1922      C1995   1.470       .  S
N1923      N1940   1.330       .  A
N1923      N1945   1.324       .  A
N1923     Co1960   2.116       .  S
C1924      N1949   1.357       .  A
C1924      C1962   1.461       .  S
C1924      H1969   1.065       .  S
H1925      C1966   1.075       .  S
C1926      N1950   1.333       .  A
C1926      C1930   1.441       .  S
C1926      H1955   1.078       .  S
Co1927     N1945   2.038       .  S
Co1927     N1935   2.089       .  S
Co1927     N1967   2.046       .  S
Co1927     N1943   2.086       .  S
N1928      C1966   1.356       .  A
N1928      N1935   1.311       .  A
Co1929     N1932   2.089       .  S
Co1929     N1936   2.127       .  S
Co1929    Cl1971   2.488   1_655  S
C1930      N1968   1.351       .  A
C1930      C2027   1.474       .  S
N1931      N1938   1.327       .  A
N1931      N1961   1.317       .  A
N1931     Co1964   2.065       .  S
N1932      N1950   1.316       .  A
N1932      N1968   1.332       .  A
N1933      C1962   1.348       .  A
N1933      N1943   1.328       .  A
H1934      C1959   1.082       .  S
N1935      N1956   1.332       .  A
N1936      N1954   1.316       .  A
N1936      N1941   1.331       .  A
C1937      N1941   1.353       .  A
C1937      C1965   1.447       .  S
C1937      C2024   1.487       .  S
N1938      C1953   1.356       .  A
C1939      N1967   1.330       .  A
C1939      C1942   1.437       .  S
C1939      H1973   1.081       .  S
C1942      N1963   1.364       .  A
C1942      C1980   1.481       .  S
N1943      N1949   1.315       .  A
N1944      C1970   1.356       .  A
N1944      N1946   1.323       .  A
N1945      C1959   1.327       .  A
N1946      N1974   1.312       .  A
N1946     Co1964   2.028       .  S
H1947      C1970   1.082       .  S
H1948      C1965   1.079       .  S
N1950     Co1964   2.068       .  S
N1951      N1963   1.334       .  A
N1951      N1967   1.324       .  A
N1951     Co1960   2.140       .  S
C1952      N1956   1.358       .  A
C1952      C1966   1.481       .  S
C1952      C2059   1.504       .  S
C1953      C1972   1.480       .  S
C1953      H1957   1.082       .  S
N1954      C1965   1.344       .  A
N1954     Co1964   2.062       .  S
C1958      N1974   1.329       .  A
C1958      C1970   1.479       .  S
C1958      C1976   1.478       .  S
N1961      C1972   1.334       .  A
C1962      C2055   1.503       .  S
Co1964    Cl1971   2.392   1_655  S
C1972      C1992   1.484       .  S
C1975      C1976   1.364       .  D
C1975      H1977   1.086       .  S
C1976      H1978   1.086       .  S
C1979      C1980   1.362       .  D
C1979      H1981   1.085       .  S
C1980      H1982   1.085       .  S
C1983      C1984   1.361       .  D
C1983      H1985   1.086       .  S
C1984      H1986   1.086       .  S
C1987      C1988   1.362       .  D
C1987      H1989   1.086       .  S
C1988      H1990   1.085       .  S
C1991      C1992   1.362       .  D
C1991      H1993   1.086       .  S
C1992      H1994   1.085       .  S
C1995      C1996   1.360       .  D
C1995      H1997   1.086       .  S
C1996      H1998   1.086       .  S
C1999      C2000   1.359       .  D
C1999      H2001   1.085       .  S
C2000      H2002   1.086       .  S
C2003      C2004   1.366       .  D
C2003      H2005   1.086       .  S
C2004      H2006   1.086       .  S
C2007      C2008   1.343       .  D
C2007      H2009   1.086       .  S
C2008      H2010   1.086       .  S
C2011      C2012   1.342       .  D
C2011      H2013   1.081       .  S
C2012      H2014   1.086       .  S
C2015      C2016   1.347       .  D
C2015      H2017   1.085       .  S
C2016      H2018   1.085       .  S
C2019      C2020   1.343       .  D
C2019      H2021   1.085       .  S
C2020      H2022   1.083       .  S
C2023      C2024   1.361       .  D
C2023      H2025   1.086       .  S
C2024      H2026   1.086       .  S
C2027      C2028   1.350       .  D
C2027      H2029   1.087       .  S
C2028      H2030   1.084       .  S
C2031      C2032   1.356       .  D
C2031      H2033   1.083       .  S
C2032      H2034   1.087       .  S
C2035      C2036   1.359       .  D
C2035      H2037   1.086       .  S
C2036      H2038   1.085       .  S
C2039      C2040   1.343       .  D
C2039      H2041   1.082       .  S
C2040      H2042   1.086       .  S
C2043      C2044   1.350       .  D
C2043      H2045   1.086       .  S
C2044      H2046   1.084       .  S
C2047      C2048   1.343       .  D
C2047      H2049   1.086       .  S
C2048      H2050   1.086       .  S
C2051      C2052   1.348       .  D
C2051      H2053   1.086       .  S
C2052      H2054   1.085       .  S
C2055      C2056   1.370       .  D
C2055      H2057   1.084       .  S
C2056      H2058   1.085       .  S
C2059      C2060   1.368       .  D
C2059      H2061   1.088       .  S
C2060      H2062   1.087       .  S
C2063      C2064   1.357       .  D
C2063      H2065   1.086       .  S
C2064      H2066   1.085       .  S
C2067      C2068   1.360       .  D
C2067      H2069   1.087       .  S
C2068      H2070   1.085       .  S
C2071      N2089   1.348       .  A
C2071      C2108   1.460       .  S
C2071      C2465   1.492       .  S
N2072      N2089   1.327       .  A
N2072      N2094   1.316       .  A
C2073      N2098   1.348       .  A
C2073      C2111   1.474       .  S
C2073      H2118   1.082       .  S
H2074      C2115   1.082       .  S
C2075      N2099   1.326       .  A
C2075      C2079   1.446       .  S
C2075      H2104   1.081       .  S
Co2076     N2094   2.087       .  S
Co2076     N2084   2.039       .  S
Co2076     N2116   2.081       .  S
Co2076     N2092   2.076       .  S
Co2076    Cl2120   2.399       .  S
N2077      C2115   1.362       .  A
N2077      N2084   1.326       .  A
N2077     Co2078   2.164       .  S
Co2078     N2098   2.147       .  S
Co2078    Cl2120   2.526       .  S
C2079      N2117   1.367       .  A
C2079      C2477   1.502       .  S
N2080      N2087   1.312       .  A
N2080      N2110   1.328       .  A
N2080     Co2113   2.067       .  S
N2081      N2099   1.321       .  A
N2081      N2117   1.337       .  A
N2082      C2111   1.339       .  A
N2082      N2092   1.329       .  A
H2083      C2108   1.079       .  S
N2084      N2105   1.314       .  A
N2085      N2103   1.322       .  A
N2085      N2090   1.343       .  A
C2086      N2090   1.375       .  A
C2086      C2114   1.440       .  S
C2086      C2470   1.513       .  S
N2087      C2102   1.345       .  A
N2087     Co2109   2.097   1_556  S
C2088      N2116   1.340       .  A
C2088      C2091   1.453       .  S
C2088      H2122   1.081       .  S
C2091      N2112   1.355       .  A
C2091      C2461   1.485       .  S
N2092      N2098   1.332       .  A
N2093      C2119   1.346       .  A
N2093      N2095   1.314       .  A
N2093     Co2109   2.097   1_556  S
N2094      C2108   1.347       .  A
N2095      N2123   1.328       .  A
N2095     Co2113   2.077       .  S
H2096      C2119   1.074       .  S
H2097      C2114   1.081       .  S
N2099     Co2113   2.050       .  S
N2100      N2112   1.331       .  A
N2100      N2116   1.317       .  A
C2101      N2105   1.330       .  A
C2101      C2115   1.488       .  S
C2101      C2482   1.491       .  S
C2102      C2121   1.454       .  S
C2102      H2106   1.074       .  S
N2103      C2114   1.326       .  A
N2103     Co2113   2.048       .  S
C2107      N2123   1.346       .  A
C2107      C2119   1.462       .  S
C2107      C2454   1.488       .  S
N2110      C2121   1.348       .  A
C2111      C2474   1.485       .  S
C2121      C2458   1.484       .  S
C2124      N2142   1.367       .  A
C2124      C2161   1.443       .  S
C2124      C2449   1.493       .  S
N2125      N2142   1.337       .  A
N2125      N2147   1.322       .  A
N2125     Co2162   2.140       .  S
C2126      N2151   1.343       .  A
C2126      C2164   1.456       .  S
C2126      H2171   1.073       .  S
H2127      C2168   1.071       .  S
C2128      N2152   1.340       .  A
C2128      C2132   1.447       .  S
C2128      H2157   1.080       .  S
Co2129     N2147   2.049       .  S
Co2129     N2137   2.083       .  S
Co2129     N2169   2.057       .  S
Co2129     N2145   2.069       .  S
Co2129    Cl2173   2.371       .  S
N2130      C2168   1.342       .  A
N2130      N2137   1.314       .  A
Co2131     N2134   2.114   1_554  S
Co2131     N2138   2.089   1_554  S
C2132      N2170   1.358       .  A
C2132      C2433   1.490       .  S
N2133      N2140   1.325       .  A
N2133      N2163   1.310       .  A
N2133     Co2166   2.067       .  S
N2134      N2152   1.314       .  A
N2134      N2170   1.333       .  A
N2135      C2164   1.348       .  A
N2135      N2145   1.328       .  A
H2136      C2161   1.081       .  S
N2137      N2158   1.328       .  A
N2138      N2156   1.315       .  A
N2138      N2143   1.324       .  A
C2139      N2143   1.346       .  A
C2139      C2167   1.462       .  S
C2139      C2429   1.486       .  S
N2140      C2155   1.355       .  A
C2141      N2169   1.329       .  A
C2141      C2144   1.443       .  S
C2141      H2175   1.082       .  S
C2144      N2165   1.366       .  A
C2144      C2442   1.494       .  S
N2145      N2151   1.314       .  A
N2146      C2172   1.361       .  A
N2146      N2148   1.326       .  A
N2147      C2161   1.323       .  A
N2148      N2176   1.318       .  A
N2148     Co2166   2.051       .  S
H2149      C2172   1.081       .  S
H2150      C2167   1.080       .  S
N2152     Co2166   2.068       .  S
N2153      N2165   1.336       .  A
N2153      N2169   1.323       .  A
N2153     Co2162   2.138       .  S
C2154      N2158   1.349       .  A
C2154      C2168   1.462       .  S
C2154      C2426   1.490       .  S
C2155      C2174   1.476       .  S
C2155      H2159   1.081       .  S
N2156      C2167   1.345       .  A
N2156     Co2166   2.080       .  S
C2160      N2176   1.334       .  A
C2160      C2172   1.485       .  S
C2160      C2437   1.495       .  S
Co2162    Cl2173   2.525       .  S
N2163      C2174   1.336       .  A
C2164      C2421   1.482       .  S
C2174      C2445   1.487       .  S
C2177      N2195   1.352       .  A
C2177      C2214   1.452       .  S
C2177      C2466   1.487       .  S
N2178      N2195   1.329       .  A
N2178      N2200   1.314       .  A
N2178     Co2215   2.103       .  S
C2179      N2204   1.358       .  A
C2179      C2217   1.480       .  S
C2179      H2224   1.082       .  S
H2180      C2221   1.082       .  S
C2181      N2205   1.326       .  A
C2181      C2185   1.438       .  S
C2181      H2210   1.082       .  S
Co2182     N2200   2.074   1_565  S
Co2182     N2190   2.037   1_565  S
Co2182     N3050   2.050       .  S
Co2182     N3026   2.046       .  S
Co2182    Cl2226   2.397   1_565  S
N2183      C2221   1.356       .  A
N2183      N2190   1.326       .  A
N2183     Co2184   2.126       .  S
Co2184     N2187   2.126       .  S
Co2184     N3032   2.115   1_545  S
Co2184     N3019   2.129   1_545  S
Co2184    Cl2226   2.490       .  S
C2185      N2223   1.359       .  A
C2185      C2413   1.474       .  S
N2186      N2193   1.315       .  A
N2186      N2216   1.332       .  A
N2186     Co2219   2.078       .  S
N2187      N2205   1.324       .  A
N2187      N2223   1.332       .  A
N2188      C2217   1.329       .  A
N2188      N2198   1.312       .  A
H2189      C2214   1.080       .  S
N2190      N2211   1.311       .  A
N2191      N2209   1.325       .  A
N2191      N2196   1.335       .  A
N2191     Co3012   2.138       .  S
C2192      N2196   1.364       .  A
C2192      C2220   1.436       .  S
C2192      C2405   1.479       .  S
N2193      C2208   1.339       .  A
N2193     Co2215   2.091       .  S
C2194      N2222   1.346       .  A
C2194      C2197   1.455       .  S
C2194      H2228   1.079       .  S
C2197      N2218   1.348       .  A
C2197      C2462   1.490       .  S
N2198      N2204   1.325       .  A
N2198     Co3010   2.038       .  S
N2199      C2225   1.342       .  A
N2199      N2201   1.314       .  A
N2199     Co3043   2.093       .  S
N2200      C2214   1.343       .  A
N2201      N2229   1.329       .  A
N2201     Co3047   2.078       .  S
H2202      C2225   1.067       .  S
H2203      C2220   1.081       .  S
N2204     Co3012   2.134       .  S
N2205     Co2219   2.039       .  S
N2206      N2218   1.325       .  A
N2206      N2222   1.311       .  A
N2206     Co3043   2.117       .  S
C2207      N2211   1.328       .  A
C2207      C2221   1.477       .  S
C2207      C2417   1.471       .  S
C2208      C2227   1.445       .  S
C2208      H2212   1.069       .  S
N2209      C2220   1.327       .  A
N2209     Co3047   2.047       .  S
C2213      N2229   1.349       .  A
C2213      C2225   1.454       .  S
C2213      C2422   1.490       .  S
Co2215     N3027   2.097   1_545  S
Co2215     N3034   2.107   1_545  S
Co2215    Cl2226   2.485       .  S
N2216      C2227   1.350       .  A
C2217      C2410   1.479       .  S
Co2219     N3029   2.084   1_545  S
Co2219     N3037   2.042   1_545  S
Co2219    Cl2226   2.398       .  S
N2222     Co3010   2.050       .  S
C2227      C2425   1.481       .  S
C2230      N2248   1.366       .  A
C2230      C2267   1.436       .  S
C2230      C2401   1.484       .  S
N2231      N2248   1.336       .  A
N2231      N2253   1.324       .  A
N2231     Co2268   2.148       .  S
C2232      N2257   1.337       .  A
C2232      C2270   1.441       .  S
C2232      H2277   1.069       .  S
H2233      C2274   1.073       .  S
C2234      N2258   1.349       .  A
C2234      C2238   1.461       .  S
C2234      H2263   1.080       .  S
Co2235     N2253   2.040   1_565  S
Co2235     N2243   2.084   1_565  S
Co2235     N3103   2.039       .  S
Co2235     N3079   2.072       .  S
Co2235    Cl2279   2.392   1_565  S
N2236      C2274   1.344       .  A
N2236      N2243   1.314       .  A
N2236     Co2237   2.090       .  S
Co2237     N2240   2.104       .  S
Co2237     N3085   2.105   1_545  S
Co2237     N3072   2.096   1_545  S
Co2237    Cl2279   2.504       .  S
C2238      N2276   1.347       .  A
C2238      C2434   1.493       .  S
N2239      N2246   1.327       .  A
N2239      N2269   1.315       .  A
N2239     Co2272   2.048       .  S
N2240      N2258   1.314       .  A
N2240      N2276   1.325       .  A
N2241      C2270   1.350       .  A
N2241      N2251   1.331       .  A
H2242      C2267   1.081       .  S
N2243      N2264   1.328       .  A
N2244      N2262   1.315       .  A
N2244      N2249   1.329       .  A
N2244     Co3065   2.099       .  S
C2245      N2249   1.352       .  A
C2245      C2273   1.450       .  S
C2245      C2430   1.482       .  S
N2246      C2261   1.353       .  A
N2246     Co2268   2.131       .  S
C2247      N2275   1.326       .  A
C2247      C2250   1.437       .  S
C2247      H2281   1.082       .  S
C2250      N2271   1.364       .  A
C2250      C2393   1.481       .  S
N2251      N2257   1.315       .  A
N2251     Co3063   2.076       .  S
N2252      C2278   1.354       .  A
N2252      N2254   1.327       .  A
N2252     Co3096   2.126       .  S
N2253      C2267   1.328       .  A
N2254      N2282   1.314       .  A
N2254     Co3100   2.046       .  S
H2255      C2278   1.082       .  S
H2256      C2273   1.080       .  S
N2257     Co3065   2.091       .  S
N2258     Co2272   2.077       .  S
N2259      N2271   1.335       .  A
N2259      N2275   1.323       .  A
N2259     Co3096   2.140       .  S
C2260      N2264   1.349       .  A
C2260      C2274   1.459       .  S
C2260      C2457   1.489       .  S
C2261      C2280   1.474       .  S
C2261      H2265   1.081       .  S
N2262      C2273   1.341       .  A
N2262     Co3100   2.073       .  S
C2266      N2282   1.331       .  A
C2266      C2278   1.475       .  S
C2266      C2389   1.472       .  S
Co2268     N3080   2.141   1_545  S
Co2268     N3087   2.130   1_545  S
Co2268    Cl2279   2.494       .  S
N2269      C2280   1.333       .  A
C2270      C2453   1.480       .  S
Co2272     N3082   2.042   1_545  S
Co2272     N3090   2.085   1_545  S
Co2272    Cl2279   2.399       .  S
N2275     Co3063   2.036       .  S
C2280      C2397   1.475       .  S
C2283      N2301   1.353       .  A
C2283      C2320   1.451       .  S
C2283      C2481   1.490       .  S
N2284      N2301   1.331       .  A
N2284      N2306   1.315       .  A
C2285      N2310   1.357       .  A
C2285      C2323   1.482       .  S
C2285      H2330   1.081       .  S
H2286      C2327   1.082       .  S
C2287      N2311   1.326       .  A
C2287      C2291   1.436       .  S
C2287      H2316   1.081       .  S
Co2288     N2306   2.063       .  S
Co2288     N2296   2.034       .  S
Co2288     N2328   2.076       .  S
Co2288     N2304   2.052       .  S
N2289      C2327   1.352       .  A
N2289      N2296   1.324       .  A
Co2290     N2293   2.125       .  S
Co2290     N2297   2.127       .  S
Co2290    Cl2332   2.503       .  S
C2291      N2329   1.361       .  A
C2291      C2414   1.474       .  S
N2292      N2299   1.317       .  A
N2292      N2322   1.322       .  A
N2292     Co2325   2.056       .  S
N2293      N2311   1.322       .  A
N2293      N2329   1.333       .  A
N2294      C2323   1.331       .  A
N2294      N2304   1.316       .  A
H2295      C2320   1.080       .  S
N2296      N2317   1.312       .  A
N2297      N2315   1.323       .  A
N2297      N2302   1.333       .  A
C2298      N2302   1.362       .  A
C2298      C2326   1.436       .  S
C2298      C2398   1.477       .  S
N2299      C2314   1.352       .  A
N2299     Co2321   2.115   1_655  S
C2300      N2328   1.339       .  A
C2300      C2303   1.446       .  S
C2300      H2334   1.078       .  S
C2303      N2324   1.352       .  A
C2303      C2478   1.485       .  S
N2304      N2310   1.326       .  A
N2305      C2331   1.354       .  A
N2305      N2307   1.314       .  A
N2305     Co2321   2.110   1_655  S
N2306      C2320   1.346       .  A
N2307      N2335   1.319       .  A
N2307     Co2325   2.040       .  S
H2308      C2331   1.072       .  S
H2309      C2326   1.082       .  S
N2311     Co2325   2.037       .  S
N2312      N2324   1.333       .  A
N2312      N2328   1.314       .  A
C2313      N2317   1.330       .  A
C2313      C2327   1.472       .  S
C2313      C2418   1.471       .  S
C2314      C2333   1.456       .  S
C2314      H2318   1.067       .  S
N2315      C2326   1.326       .  A
N2315     Co2325   2.040       .  S
C2319      N2335   1.336       .  A
C2319      C2331   1.457       .  S
C2319      C2446   1.462       .  S
Co2321    Cl2332   2.482   1_455  S
N2322      C2333   1.341       .  A
C2323      C2402   1.481       .  S
Co2325    Cl2332   2.389       .  S
C2333      C2450   1.477       .  S
C2336      N2354   1.359       .  A
C2336      C2373   1.438       .  S
C2336      C2409   1.478       .  S
N2337      N2354   1.332       .  A
N2337      N2359   1.325       .  A
N2337     Co2374   2.128       .  S
C2338      N2363   1.358       .  A
C2338      C2376   1.460       .  S
C2338      H2383   1.069       .  S
H2339      C2380   1.074       .  S
C2340      N2364   1.348       .  A
C2340      C2344   1.452       .  S
C2340      H2369   1.079       .  S
Co2341     N2359   2.038       .  S
Co2341     N2349   2.083       .  S
Co2341     N2381   2.055       .  S
Co2341     N2357   2.080       .  S
N2342      C2380   1.355       .  A
N2342      N2349   1.310       .  A
Co2343     N2346   2.096       .  S
Co2343     N2350   2.113       .  S
Co2343    Cl2385   2.503   1_655  S
C2344      N2382   1.348       .  A
C2344      C2441   1.485       .  S
N2345      N2352   1.325       .  A
N2345      N2375   1.316       .  A
N2345     Co2378   2.045       .  S
N2346      N2364   1.316       .  A
N2346      N2382   1.329       .  A
N2347      C2376   1.346       .  A
N2347      N2357   1.326       .  A
H2348      C2373   1.082       .  S
N2349      N2370   1.331       .  A
N2350      N2368   1.315       .  A
N2350      N2355   1.332       .  A
C2351      N2355   1.354       .  A
C2351      C2379   1.450       .  S
C2351      C2438   1.491       .  S
N2352      C2367   1.355       .  A
C2353      N2381   1.331       .  A
C2353      C2356   1.439       .  S
C2353      H2387   1.081       .  S
C2356      N2377   1.361       .  A
C2356      C2394   1.477       .  S
N2357      N2363   1.316       .  A
N2358      C2384   1.354       .  A
N2358      N2360   1.325       .  A
N2359      C2373   1.328       .  A
N2360      N2388   1.312       .  A
N2360     Co2378   2.041       .  S
H2361      C2384   1.082       .  S
H2362      C2379   1.079       .  S
N2364     Co2378   2.086       .  S
N2365      N2377   1.332       .  A
N2365      N2381   1.325       .  A
N2365     Co2374   2.130       .  S
C2366      N2370   1.357       .  A
C2366      C2380   1.478       .  S
C2366      C2473   1.499       .  S
C2367      C2386   1.478       .  S
C2367      H2371   1.081       .  S
N2368      C2379   1.346       .  A
N2368     Co2378   2.078       .  S
C2372      N2388   1.331       .  A
C2372      C2384   1.475       .  S
C2372      C2390   1.474       .  S
N2375      C2386   1.332       .  A
C2376      C2469   1.496       .  S
Co2378    Cl2385   2.382   1_655  S
C2386      C2406   1.477       .  S
C2389      C2390   1.362       .  D
C2389      H2391   1.086       .  S
C2390      H2392   1.086       .  S
C2393      C2394   1.362       .  D
C2393      H2395   1.085       .  S
C2394      H2396   1.085       .  S
C2397      C2398   1.362       .  D
C2397      H2399   1.086       .  S
C2398      H2400   1.086       .  S
C2401      C2402   1.365       .  D
C2401      H2403   1.086       .  S
C2402      H2404   1.085       .  S
C2405      C2406   1.362       .  D
C2405      H2407   1.086       .  S
C2406      H2408   1.085       .  S
C2409      C2410   1.364       .  D
C2409      H2411   1.086       .  S
C2410      H2412   1.086       .  S
C2413      C2414   1.360       .  D
C2413      H2415   1.085       .  S
C2414      H2416   1.086       .  S
C2417      C2418   1.363       .  D
C2417      H2419   1.086       .  S
C2418      H2420   1.086       .  S
C2421      C2422   1.351       .  D
C2421      H2423   1.083       .  S
C2422      H2424   1.086       .  S
C2425      C2426   1.344       .  D
C2425      H2427   1.081       .  S
C2426      H2428   1.086       .  S
C2429      C2430   1.346       .  D
C2429      H2431   1.087       .  S
C2430      H2432   1.085       .  S
C2433      C2434   1.344       .  D
C2433      H2435   1.086       .  S
C2434      H2436   1.083       .  S
C2437      C2438   1.363       .  D
C2437      H2439   1.085       .  S
C2438      H2440   1.086       .  S
C2441      C2442   1.361       .  D
C2441      H2443   1.086       .  S
C2442      H2444   1.086       .  S
C2445      C2446   1.354       .  D
C2445      H2447   1.084       .  S
C2446      H2448   1.086       .  S
C2449      C2450   1.356       .  D
C2449      H2451   1.086       .  S
C2450      H2452   1.085       .  S
C2453      C2454   1.345       .  D
C2453      H2455   1.085       .  S
C2454      H2456   1.086       .  S
C2457      C2458   1.350       .  D
C2457      H2459   1.086       .  S
C2458      H2460   1.083       .  S
C2461      C2462   1.346       .  D
C2461      H2463   1.085       .  S
C2462      H2464   1.084       .  S
C2465      C2466   1.350       .  D
C2465      H2467   1.085       .  S
C2466      H2468   1.085       .  S
C2469      C2470   1.368       .  D
C2469      H2471   1.084       .  S
C2470      H2472   1.086       .  S
C2473      C2474   1.363       .  D
C2473      H2475   1.088       .  S
C2474      H2476   1.087       .  S
C2477      C2478   1.357       .  D
C2477      H2479   1.082       .  S
C2478      H2480   1.084       .  S
C2481      C2482   1.362       .  D
C2481      H2483   1.087       .  S
C2482      H2484   1.085       .  S
C2485      N2503   1.344       .  A
C2485      C2522   1.464       .  S
C2485      C2879   1.487       .  S
N2486      N2503   1.323       .  A
N2486      N2508   1.316       .  A
N2486     Co2937   2.082   1_554  S
C2487      N2512   1.356       .  A
C2487      C2525   1.476       .  S
C2487      H2532   1.082       .  S
H2488      C2529   1.081       .  S
C2489      N2513   1.324       .  A
C2489      C2493   1.446       .  S
C2489      H2518   1.081       .  S
Co2490     N2508   2.096       .  S
Co2490     N2498   2.057       .  S
Co2490     N2530   2.086       .  S
Co2490     N2506   2.066       .  S
Co2490    Cl2534   2.365   1_554  S
N2491      C2529   1.359       .  A
N2491      N2498   1.327       .  A
N2491     Co2492   2.143   1_554  S
Co2492     N2909   2.133       .  S
Co2492     N2512   2.123   1_556  S
Co2492     N2913   2.133       .  S
Co2492    Cl2534   2.540       .  S
C2493      N2531   1.365       .  A
C2493      C2891   1.494       .  S
N2494      N2501   1.313       .  A
N2494      N2524   1.327       .  A
N2494     Co2527   2.063       .  S
N2495      N2513   1.323       .  A
N2495      N2531   1.335       .  A
N2495     Co2906   2.125       .  S
N2496      C2525   1.338       .  A
N2496      N2506   1.314       .  A
H2497      C2522   1.080       .  S
N2498      N2519   1.317       .  A
N2499      N2517   1.321       .  A
N2499      N2504   1.339       .  A
N2499     Co2906   2.140       .  S
C2500      N2504   1.368       .  A
C2500      C2528   1.444       .  S
C2500      C2884   1.502       .  S
N2501      C2516   1.345       .  A
N2501     Co2523   2.100       .  S
C2502      N2530   1.347       .  A
C2502      C2505   1.463       .  S
C2502      H2536   1.080       .  S
C2505      N2526   1.346       .  A
C2505      C2875   1.489       .  S
N2506      N2512   1.326       .  A
N2507      C2533   1.343       .  A
N2507      N2509   1.315       .  A
N2507     Co2523   2.088       .  S
N2508      C2522   1.347       .  A
N2509      N2537   1.328       .  A
N2509     Co2527   2.083       .  S
H2510      C2533   1.073       .  S
H2511      C2528   1.080       .  S
N2513     Co2527   2.060       .  S
N2514      N2526   1.324       .  A
N2514      N2530   1.314       .  A
N2514     Co2937   2.086   1_554  S
C2515      N2519   1.333       .  A
C2515      C2529   1.483       .  S
C2515      C2896   1.488       .  S
C2516      C2535   1.456       .  S
C2516      H2520   1.072       .  S
N2517      C2528   1.323       .  A
N2517     Co2527   2.048       .  S
C2521      N2537   1.348       .  A
C2521      C2533   1.464       .  S
C2521      C2868   1.488       .  S
Co2523     N2900   2.110       .  S
Co2523     N2928   2.105       .  S
Co2523    Cl2948   2.520       .  S
N2524      C2535   1.347       .  A
C2525      C2888   1.491       .  S
Co2527    Cl2948   2.355       .  S
Cl2534    Co2937   2.518       .  S
Cl2534    Co2941   2.348       .  S
C2535      C2872   1.486       .  S
C2538      N2556   1.368       .  A
C2538      C2575   1.444       .  S
C2538      C2863   1.499       .  S
N2539      N2556   1.338       .  A
N2539      N2561   1.321       .  A
N2539     Co2576   2.141       .  S
C2540      N2565   1.340       .  A
C2540      C2578   1.449       .  S
C2540      H2585   1.072       .  S
H2541      C2582   1.072       .  S
C2542      N2566   1.338       .  A
C2542      C2546   1.445       .  S
C2542      H2571   1.080       .  S
Co2543     N2561   2.048       .  S
Co2543     N2551   2.091       .  S
Co2543     N2583   2.062       .  S
Co2543     N2559   2.072       .  S
Co2543    Cl2587   2.368       .  S
N2544      C2582   1.344       .  A
N2544      N2551   1.315       .  A
N2544     Co2959   2.092   1_554  S
Co2545     N2958   2.085       .  S
Co2545     N2548   2.128       .  S
Co2545     N2979   2.104       .  S
Co2545     N2552   2.109       .  S
Co2545    Cl3001   2.513       .  S
C2546      N2584   1.360       .  A
C2546      C2847   1.489       .  S
N2547      N2554   1.325       .  A
N2547      N2577   1.310       .  A
N2547     Co2580   2.064       .  S
N2548      N2566   1.313       .  A
N2548      N2584   1.335       .  A
N2549      C2578   1.349       .  A
N2549      N2559   1.330       .  A
H2550      C2575   1.081       .  S
N2551      N2572   1.330       .  A
N2552      N2570   1.315       .  A
N2552      N2557   1.330       .  A
C2553      N2557   1.354       .  A
C2553      C2581   1.449       .  S
C2553      C2843   1.485       .  S
N2554      C2569   1.357       .  A
N2554     Co2990   2.125       .  S
C2555      N2583   1.328       .  A
C2555      C2558   1.443       .  S
C2555      H2589   1.082       .  S
C2558      N2579   1.364       .  A
C2558      C2856   1.489       .  S
N2559      N2565   1.314       .  A
N2560      C2586   1.363       .  A
N2560      N2562   1.326       .  A
N2560     Co2990   2.153       .  S
N2561      C2575   1.324       .  A
N2562      N2590   1.314       .  A
N2562     Co2580   2.051       .  S
H2563      C2586   1.081       .  S
H2564      C2581   1.079       .  S
N2565     Co2959   2.089   1_554  S
N2566     Co2580   2.051       .  S
N2567      N2579   1.335       .  A
N2567      N2583   1.324       .  A
N2567     Co2576   2.132       .  S
C2568      N2572   1.350       .  A
C2568      C2582   1.462       .  S
C2568      C2840   1.496       .  S
C2569      C2588   1.481       .  S
C2569      H2573   1.082       .  S
N2570      C2581   1.341       .  A
N2570     Co2580   2.069       .  S
C2574      N2590   1.329       .  A
C2574      C2586   1.490       .  S
C2574      C2851   1.493       .  S
Co2576     N2968   2.124   1_554  S
Co2576     N2974   2.139   1_554  S
Co2576    Cl2587   2.526       .  S
N2577      C2588   1.335       .  A
C2578      C2835   1.481       .  S
Co2580    Cl3001   2.370       .  S
Cl2587    Co2959   2.507   1_554  S
Cl2587    Co2994   2.374   1_554  S
C2588      C2859   1.489       .  S
C2591      N2609   1.355       .  A
C2591      C2628   1.445       .  S
C2591      C2880   1.483       .  S
N2592      N2609   1.330       .  A
N2592      N2614   1.313       .  A
N2592     Co2629   2.122       .  S
C2593      N2618   1.355       .  A
C2593      C2631   1.476       .  S
C2593      H2638   1.081       .  S
H2594      C2635   1.081       .  S
C2595      N2619   1.328       .  A
C2595      C2599   1.440       .  S
C2595      H2624   1.082       .  S
Co2596     N2614   2.050       .  S
Co2596     N2604   2.026       .  S
Co2596    Cl2640   2.397       .  S
N2597      C2635   1.357       .  A
N2597      N2604   1.323       .  A
N2597     Co2598   2.128       .  S
Co2598     N2601   2.129       .  S
Co2598    Cl2640   2.504       .  S
C2599      N2637   1.360       .  A
C2599      C2827   1.474       .  S
N2600      N2607   1.316       .  A
N2600      N2630   1.334       .  A
N2600     Co2633   2.097       .  S
N2601      N2619   1.324       .  A
N2601      N2637   1.331       .  A
N2602      C2631   1.329       .  A
N2602      N2612   1.311       .  A
H2603      C2628   1.080       .  S
N2604      N2625   1.309       .  A
N2605      N2623   1.323       .  A
N2605      N2610   1.335       .  A
C2606      N2610   1.364       .  A
C2606      C2634   1.435       .  S
C2606      C2819   1.478       .  S
N2607      C2622   1.340       .  A
N2607     Co2629   2.085       .  S
C2608      N2636   1.337       .  A
C2608      C2611   1.442       .  S
C2608      H2642   1.080       .  S
C2611      N2632   1.358       .  A
C2611      C2876   1.486       .  S
N2612      N2618   1.325       .  A
N2613      C2639   1.343       .  A
N2613      N2615   1.316       .  A
N2614      C2628   1.339       .  A
N2615      N2643   1.328       .  A
H2616      C2639   1.071       .  S
H2617      C2634   1.082       .  S
N2619     Co2633   2.044       .  S
N2620      N2632   1.333       .  A
N2620      N2636   1.312       .  A
C2621      N2625   1.325       .  A
C2621      C2635   1.480       .  S
C2621      C2831   1.473       .  S
C2622      C2641   1.447       .  S
C2622      H2626   1.072       .  S
N2623      C2634   1.326       .  A
C2627      N2643   1.347       .  A
C2627      C2639   1.461       .  S
C2627      C2836   1.489       .  S
Co2629    Cl2640   2.479       .  S
N2630      C2641   1.353       .  A
C2631      C2824   1.473       .  S
Co2633    Cl2640   2.398       .  S
C2641      C2839   1.487       .  S
C2644      N2662   1.361       .  A
C2644      C2681   1.437       .  S
C2644      C2815   1.474       .  S
N2645      N2662   1.332       .  A
N2645      N2667   1.323       .  A
N2645     Co2682   2.129       .  S
C2646      N2671   1.340       .  A
C2646      C2684   1.442       .  S
C2646      H2691   1.066       .  S
H2647      C2688   1.073       .  S
C2648      N2672   1.349       .  A
C2648      C2652   1.465       .  S
C2648      H2677   1.080       .  S
Co2649     N2667   2.039       .  S
Co2649     N2657   2.091       .  S
Co2649    Cl2693   2.396       .  S
N2650      C2688   1.344       .  A
N2650      N2657   1.315       .  A
N2650     Co2651   2.090       .  S
Co2651     N2654   2.090       .  S
Co2651    Cl2693   2.503       .  S
C2652      N2690   1.346       .  A
C2652      C2848   1.493       .  S
N2653      N2660   1.327       .  A
N2653      N2683   1.316       .  A
N2653     Co2686   2.048       .  S
N2654      N2672   1.314       .  A
N2654      N2690   1.324       .  A
N2655      C2684   1.348       .  A
N2655      N2665   1.331       .  A
H2656      C2681   1.082       .  S
N2657      N2678   1.329       .  A
N2658      N2676   1.315       .  A
N2658      N2663   1.322       .  A
C2659      N2663   1.343       .  A
C2659      C2687   1.459       .  S
C2659      C2844   1.488       .  S
N2660      C2675   1.353       .  A
N2660     Co2682   2.130       .  S
C2661      N2689   1.327       .  A
C2661      C2664   1.437       .  S
C2661      H2695   1.082       .  S
C2664      N2685   1.363       .  A
C2664      C2807   1.480       .  S
N2665      N2671   1.314       .  A
N2666      C2692   1.352       .  A
N2666      N2668   1.326       .  A
N2667      C2681   1.327       .  A
N2668      N2696   1.317       .  A
H2669      C2692   1.081       .  S
H2670      C2687   1.079       .  S
N2672     Co2686   2.087       .  S
N2673      N2685   1.334       .  A
N2673      N2689   1.323       .  A
C2674      N2678   1.350       .  A
C2674      C2688   1.458       .  S
C2674      C2871   1.490       .  S
C2675      C2694   1.474       .  S
C2675      H2679   1.082       .  S
N2676      C2687   1.348       .  A
C2680      N2696   1.334       .  A
C2680      C2692   1.474       .  S
C2680      C2803   1.475       .  S
Co2682    Cl2693   2.489       .  S
N2683      C2694   1.334       .  A
C2684      C2867   1.479       .  S
Co2686    Cl2693   2.398       .  S
C2694      C2811   1.477       .  S
C2697      N2715   1.357       .  A
C2697      C2734   1.444       .  S
C2697      C2895   1.488       .  S
N2698      N2715   1.333       .  A
N2698      N2720   1.314       .  A
C2699      N2724   1.356       .  A
C2699      C2737   1.479       .  S
C2699      H2744   1.081       .  S
H2700      C2741   1.082       .  S
C2701      N2725   1.328       .  A
C2701      C2705   1.438       .  S
C2701      H2730   1.081       .  S
Co2702     N2720   2.051       .  S
Co2702     N2710   2.031       .  S
Co2702     N2742   2.069       .  S
Co2702     N2718   2.048       .  S
N2703      C2741   1.354       .  A
N2703      N2710   1.324       .  A
Co2704     N2707   2.129       .  S
Co2704     N2711   2.138       .  S
Co2704    Cl2746   2.503   1_655  S
C2705      N2743   1.361       .  A
C2705      C2828   1.474       .  S
N2706      N2713   1.316       .  A
N2706      N2736   1.322       .  A
N2706     Co2739   2.056       .  S
N2707      N2725   1.324       .  A
N2707      N2743   1.332       .  A
N2708      C2737   1.330       .  A
N2708      N2718   1.313       .  A
H2709      C2734   1.080       .  S
N2710      N2731   1.312       .  A
N2711      N2729   1.323       .  A
N2711      N2716   1.335       .  A
C2712      N2716   1.363       .  A
C2712      C2740   1.436       .  S
C2712      C2812   1.480       .  S
N2713      C2728   1.355       .  A
N2713     Co2735   2.120   1_655  S
C2714      N2742   1.337       .  A
C2714      C2717   1.443       .  S
C2714      H2748   1.079       .  S
C2717      N2738   1.352       .  A
C2717      C2892   1.480       .  S
N2718      N2724   1.325       .  A
N2719      C2745   1.358       .  A
N2719      N2721   1.316       .  A
N2719     Co2735   2.121   1_655  S
N2720      C2734   1.341       .  A
N2721      N2749   1.320       .  A
N2721     Co2739   2.055       .  S
H2722      C2745   1.074       .  S
H2723      C2740   1.082       .  S
N2725     Co2739   2.047       .  S
N2726      N2738   1.333       .  A
N2726      N2742   1.315       .  A
C2727      N2731   1.328       .  A
C2727      C2741   1.473       .  S
C2727      C2832   1.473       .  S
C2728      C2747   1.457       .  S
C2728      H2732   1.067       .  S
N2729      C2740   1.327       .  A
N2729     Co2739   2.035       .  S
C2733      N2749   1.340       .  A
C2733      C2745   1.461       .  S
C2733      C2860   1.477       .  S
Co2735    Cl2746   2.482       .  S
N2736      C2747   1.341       .  A
C2737      C2816   1.473       .  S
Co2739    Cl2746   2.399   1_655  S
C2747      C2864   1.481       .  S
C2750      N2768   1.359       .  A
C2750      C2787   1.436       .  S
C2750      C2823   1.473       .  S
N2751      N2768   1.332       .  A
N2751      N2773   1.322       .  A
N2751     Co2788   2.120       .  S
C2752      N2777   1.355       .  A
C2752      C2790   1.461       .  S
C2752      H2797   1.071       .  S
H2753      C2794   1.076       .  S
C2754      N2778   1.347       .  A
C2754      C2758   1.454       .  S
C2754      H2783   1.080       .  S
Co2755     N2773   2.034       .  S
Co2755     N2763   2.052       .  S
Co2755     N2795   2.048       .  S
Co2755     N2771   2.055       .  S
N2756      C2794   1.359       .  A
N2756      N2763   1.315       .  A
Co2757     N2760   2.085       .  S
Co2757     N2764   2.111       .  S
Co2757    Cl2799   2.502   1_655  S
C2758      N2796   1.344       .  A
C2758      C2855   1.479       .  S
N2759      N2766   1.327       .  A
N2759      N2789   1.316       .  A
N2759     Co2792   2.046       .  S
N2760      N2778   1.315       .  A
N2760      N2796   1.326       .  A
N2761      C2790   1.341       .  A
N2761      N2771   1.320       .  A
H2762      C2787   1.082       .  S
N2763      N2784   1.319       .  A
N2764      N2782   1.317       .  A
N2764      N2769   1.331       .  A
C2765      N2769   1.351       .  A
C2765      C2793   1.450       .  S
C2765      C2852   1.490       .  S
N2766      C2781   1.353       .  A
C2767      N2795   1.329       .  A
C2767      C2770   1.437       .  S
C2767      H2801   1.081       .  S
C2770      N2791   1.363       .  A
C2770      C2808   1.479       .  S
N2771      N2777   1.315       .  A
N2772      C2798   1.355       .  A
N2772      N2774   1.324       .  A
N2773      C2787   1.325       .  A
N2774      N2802   1.315       .  A
N2774     Co2792   2.043       .  S
H2775      C2798   1.081       .  S
H2776      C2793   1.079       .  S
N2778     Co2792   2.084       .  S
N2779      N2791   1.334       .  A
N2779      N2795   1.324       .  A
N2779     Co2788   2.133       .  S
C2780      N2784   1.339       .  A
C2780      C2794   1.465       .  S
C2780      C2887   1.476       .  S
C2781      C2800   1.475       .  S
C2781      H2785   1.081       .  S
N2782      C2793   1.347       .  A
N2782     Co2792   2.083       .  S
C2786      N2802   1.332       .  A
C2786      C2798   1.477       .  S
C2786      C2804   1.477       .  S
N2789      C2800   1.333       .  A
C2790      C2883   1.481       .  S
Co2792    Cl2799   2.387   1_655  S
C2800      C2820   1.475       .  S
C2803      C2804   1.361       .  D
C2803      H2805   1.086       .  S
C2804      H2806   1.086       .  S
C2807      C2808   1.363       .  D
C2807      H2809   1.085       .  S
C2808      H2810   1.085       .  S
C2811      C2812   1.361       .  D
C2811      H2813   1.086       .  S
C2812      H2814   1.086       .  S
C2815      C2816   1.361       .  D
C2815      H2817   1.086       .  S
C2816      H2818   1.085       .  S
C2819      C2820   1.361       .  D
C2819      H2821   1.086       .  S
C2820      H2822   1.085       .  S
C2823      C2824   1.363       .  D
C2823      H2825   1.086       .  S
C2824      H2826   1.086       .  S
C2827      C2828   1.358       .  D
C2827      H2829   1.085       .  S
C2828      H2830   1.085       .  S
C2831      C2832   1.366       .  D
C2831      H2833   1.086       .  S
C2832      H2834   1.086       .  S
C2835      C2836   1.345       .  D
C2835      H2837   1.080       .  S
C2836      H2838   1.086       .  S
C2839      C2840   1.348       .  D
C2839      H2841   1.081       .  S
C2840      H2842   1.086       .  S
C2843      C2844   1.346       .  D
C2843      H2845   1.085       .  S
C2844      H2846   1.085       .  S
C2847      C2848   1.343       .  D
C2847      H2849   1.085       .  S
C2848      H2850   1.083       .  S
C2851      C2852   1.364       .  D
C2851      H2853   1.085       .  S
C2852      H2854   1.087       .  S
C2855      C2856   1.358       .  D
C2855      H2857   1.086       .  S
C2856      H2858   1.085       .  S
C2859      C2860   1.355       .  D
C2859      H2861   1.083       .  S
C2860      H2862   1.088       .  S
C2863      C2864   1.359       .  D
C2863      H2865   1.086       .  S
C2864      H2866   1.084       .  S
C2867      C2868   1.344       .  D
C2867      H2869   1.080       .  S
C2868      H2870   1.086       .  S
C2871      C2872   1.352       .  D
C2871      H2873   1.086       .  S
C2872      H2874   1.084       .  S
C2875      C2876   1.342       .  D
C2875      H2877   1.082       .  S
C2876      H2878   1.085       .  S
C2879      C2880   1.346       .  D
C2879      H2881   1.085       .  S
C2880      H2882   1.086       .  S
C2883      C2884   1.360       .  D
C2883      H2885   1.084       .  S
C2884      H2886   1.086       .  S
C2887      C2888   1.352       .  D
C2887      H2889   1.087       .  S
C2888      H2890   1.084       .  S
C2891      C2892   1.353       .  D
C2891      H2893   1.082       .  S
C2892      H2894   1.086       .  S
C2895      C2896   1.361       .  D
C2895      H2897   1.086       .  S
C2896      H2898   1.086       .  S
C2899      N2917   1.349       .  A
C2899      C2936   1.460       .  S
C2899      C3293   1.494       .  S
N2900      N2917   1.327       .  A
N2900      N2922   1.316       .  A
C2901      N2926   1.357       .  A
C2901      C2939   1.480       .  S
C2901      H2946   1.082       .  S
H2902      C2943   1.081       .  S
C2903      N2927   1.326       .  A
C2903      C2907   1.445       .  S
C2903      H2932   1.081       .  S
Co2904     N2922   2.078       .  S
Co2904     N2912   2.049       .  S
Co2904     N2944   2.063       .  S
Co2904     N2920   2.068       .  S
Co2904    Cl2948   2.363       .  S
N2905      C2943   1.360       .  A
N2905      N2912   1.325       .  A
N2905     Co2906   2.140       .  S
Co2906     N2926   2.123       .  S
Co2906    Cl2948   2.533       .  S
C2907      N2945   1.367       .  A
C2907      C3305   1.501       .  S
N2908      N2915   1.314       .  A
N2908      N2938   1.328       .  A
N2908     Co2941   2.070       .  S
N2909      N2927   1.322       .  A
N2909      N2945   1.337       .  A
N2910      C2939   1.335       .  A
N2910      N2920   1.309       .  A
H2911      C2936   1.079       .  S
N2912      N2933   1.316       .  A
N2913      N2931   1.320       .  A
N2913      N2918   1.338       .  A
C2914      N2918   1.368       .  A
C2914      C2942   1.443       .  S
C2914      C3298   1.497       .  S
N2915      C2930   1.346       .  A
N2915     Co2937   2.103       .  S
C2916      N2944   1.337       .  A
C2916      C2919   1.445       .  S
C2916      H2950   1.080       .  S
C2919      N2940   1.358       .  A
C2919      C3289   1.484       .  S
N2920      N2926   1.326       .  A
N2921      C2947   1.345       .  A
N2921      N2923   1.313       .  A
N2921     Co2937   2.088       .  S
N2922      C2936   1.346       .  A
N2923      N2951   1.329       .  A
N2923     Co2941   2.089       .  S
H2924      C2947   1.074       .  S
H2925      C2942   1.081       .  S
N2927     Co2941   2.057       .  S
N2928      N2940   1.333       .  A
N2928      N2944   1.313       .  A
C2929      N2933   1.332       .  A
C2929      C2943   1.484       .  S
C2929      C3310   1.489       .  S
C2930      C2949   1.456       .  S
C2930      H2934   1.073       .  S
N2931      C2942   1.320       .  A
N2931     Co2941   2.044       .  S
C2935      N2951   1.350       .  A
C2935      C2947   1.460       .  S
C2935      C3282   1.494       .  S
N2938      C2949   1.347       .  A
C2939      C3302   1.486       .  S
C2949      C3286   1.486       .  S
C2952      N2970   1.370       .  A
C2952      C2989   1.443       .  S
C2952      C3277   1.503       .  S
N2953      N2970   1.340       .  A
N2953      N2975   1.322       .  A
N2953     Co2990   2.147       .  S
C2954      N2979   1.346       .  A
C2954      C2992   1.459       .  S
C2954      H2999   1.073       .  S
H2955      C2996   1.072       .  S
C2956      N2980   1.338       .  A
C2956      C2960   1.446       .  S
C2956      H2985   1.080       .  S
Co2957     N2975   2.049       .  S
Co2957     N2965   2.089       .  S
Co2957     N2997   2.058       .  S
Co2957     N2973   2.069       .  S
Co2957    Cl3001   2.357       .  S
N2958      C2996   1.343       .  A
N2958      N2965   1.314       .  A
Co2959     N2962   2.116       .  S
Co2959     N2966   2.121       .  S
C2960      N2998   1.358       .  A
C2960      C3261   1.488       .  S
N2961      N2968   1.325       .  A
N2961      N2991   1.309       .  A
N2961     Co2994   2.062       .  S
N2962      N2980   1.311       .  A
N2962      N2998   1.334       .  A
N2963      C2992   1.347       .  A
N2963      N2973   1.329       .  A
H2964      C2989   1.081       .  S
N2965      N2986   1.330       .  A
N2966      N2984   1.315       .  A
N2966      N2971   1.331       .  A
C2967      N2971   1.354       .  A
C2967      C2995   1.450       .  S
C2967      C3257   1.490       .  S
N2968      C2983   1.357       .  A
C2969      N2997   1.325       .  A
C2969      C2972   1.446       .  S
C2969      H3003   1.081       .  S
C2972      N2993   1.366       .  A
C2972      C3270   1.499       .  S
N2973      N2979   1.313       .  A
N2974      C3000   1.361       .  A
N2974      N2976   1.325       .  A
N2975      C2989   1.324       .  A
N2976      N3004   1.314       .  A
N2976     Co2994   2.051       .  S
H2977      C3000   1.082       .  S
H2978      C2995   1.079       .  S
N2980     Co2994   2.053       .  S
N2981      N2993   1.336       .  A
N2981      N2997   1.323       .  A
N2981     Co2990   2.133       .  S
C2982      N2986   1.351       .  A
C2982      C2996   1.462       .  S
C2982      C3254   1.494       .  S
C2983      C3002   1.481       .  S
C2983      H2987   1.082       .  S
N2984      C2995   1.342       .  A
N2984     Co2994   2.069       .  S
C2988      N3004   1.330       .  A
C2988      C3000   1.485       .  S
C2988      C3265   1.487       .  S
Co2990    Cl3001   2.533       .  S
N2991      C3002   1.334       .  A
C2992      C3249   1.488       .  S
C3002      C3273   1.486       .  S
C3005      N3023   1.353       .  A
C3005      C3042   1.451       .  S
C3005      C3294   1.490       .  S
N3006      N3023   1.330       .  A
N3006      N3028   1.313       .  A
N3006     Co3043   2.109       .  S
C3007      N3032   1.353       .  A
C3007      C3045   1.472       .  S
C3007      H3052   1.082       .  S
H3008      C3049   1.082       .  S
C3009      N3033   1.326       .  A
C3009      C3013   1.435       .  S
C3009      H3038   1.082       .  S
Co3010     N3028   2.071       .  S
Co3010     N3018   2.035       .  S
Co3010    Cl3054   2.395       .  S
N3011      C3049   1.357       .  A
N3011      N3018   1.326       .  A
N3011     Co3012   2.134       .  S
Co3012     N3015   2.144       .  S
Co3012    Cl3054   2.500       .  S
C3013      N3051   1.364       .  A
C3013      C3241   1.481       .  S
N3014      N3021   1.315       .  A
N3014      N3044   1.332       .  A
N3014     Co3047   2.080       .  S
N3015      N3033   1.324       .  A
N3015      N3051   1.335       .  A
N3016      C3045   1.332       .  A
N3016      N3026   1.314       .  A
H3017      C3042   1.079       .  S
N3018      N3039   1.310       .  A
N3019      N3037   1.324       .  A
N3019      N3024   1.332       .  A
C3020      N3024   1.361       .  A
C3020      C3048   1.437       .  S
C3020      C3233   1.472       .  S
N3021      C3036   1.342       .  A
N3021     Co3043   2.096       .  S
C3022      N3050   1.345       .  A
C3022      C3025   1.458       .  S
C3022      H3056   1.080       .  S
C3025      N3046   1.345       .  A
C3025      C3290   1.488       .  S
N3026      N3032   1.325       .  A
N3027      C3053   1.342       .  A
N3027      N3029   1.315       .  A
N3028      C3042   1.343       .  A
N3029      N3057   1.331       .  A
H3030      C3053   1.065       .  S
H3031      C3048   1.082       .  S
N3033     Co3047   2.033       .  S
N3034      N3046   1.321       .  A
N3034      N3050   1.311       .  A
C3035      N3039   1.326       .  A
C3035      C3049   1.480       .  S
C3035      C3245   1.473       .  S
C3036      C3055   1.450       .  S
C3036      H3040   1.072       .  S
N3037      C3048   1.328       .  A
C3041      N3057   1.351       .  A
C3041      C3053   1.454       .  S
C3041      C3250   1.495       .  S
Co3043    Cl3054   2.490       .  S
N3044      C3055   1.350       .  A
C3045      C3238   1.475       .  S
Co3047    Cl3054   2.393       .  S
C3055      C3253   1.485       .  S
C3058      N3076   1.362       .  A
C3058      C3095   1.436       .  S
C3058      C3229   1.475       .  S
N3059      N3076   1.333       .  A
N3059      N3081   1.324       .  A
N3059     Co3096   2.133       .  S
C3060      N3085   1.345       .  A
C3060      C3098   1.454       .  S
C3060      H3105   1.070       .  S
H3061      C3102   1.073       .  S
C3062      N3086   1.345       .  A
C3062      C3066   1.461       .  S
C3062      H3091   1.080       .  S
Co3063     N3081   2.038       .  S
Co3063     N3071   2.090       .  S
Co3063    Cl3107   2.391       .  S
N3064      C3102   1.342       .  A
N3064      N3071   1.314       .  A
N3064     Co3065   2.084       .  S
Co3065     N3068   2.109       .  S
Co3065    Cl3107   2.488       .  S
C3066      N3104   1.349       .  A
C3066      C3262   1.492       .  S
N3067      N3074   1.327       .  A
N3067      N3097   1.316       .  A
N3067     Co3100   2.047       .  S
N3068      N3086   1.314       .  A
N3068      N3104   1.326       .  A
N3069      C3098   1.349       .  A
N3069      N3079   1.330       .  A
H3070      C3095   1.082       .  S
N3071      N3092   1.329       .  A
N3072      N3090   1.315       .  A
N3072      N3077   1.325       .  A
C3073      N3077   1.346       .  A
C3073      C3101   1.460       .  S
C3073      C3258   1.494       .  S
N3074      C3089   1.355       .  A
N3074     Co3096   2.132       .  S
C3075      N3103   1.326       .  A
C3075      C3078   1.437       .  S
C3075      H3109   1.082       .  S
C3078      N3099   1.363       .  A
C3078      C3221   1.479       .  S
N3079      N3085   1.314       .  A
N3080      C3106   1.355       .  A
N3080      N3082   1.326       .  A
N3081      C3095   1.326       .  A
N3082      N3110   1.316       .  A
H3083      C3106   1.081       .  S
H3084      C3101   1.078       .  S
N3086     Co3100   2.068       .  S
N3087      N3099   1.333       .  A
N3087      N3103   1.323       .  A
C3088      N3092   1.352       .  A
C3088      C3102   1.458       .  S
C3088      C3285   1.491       .  S
C3089      C3108   1.475       .  S
C3089      H3093   1.082       .  S
N3090      C3101   1.349       .  A
C3094      N3110   1.331       .  A
C3094      C3106   1.479       .  S
C3094      C3217   1.478       .  S
Co3096    Cl3107   2.505       .  S
N3097      C3108   1.333       .  A
C3098      C3281   1.489       .  S
Co3100    Cl3107   2.401       .  S
C3108      C3225   1.480       .  S
C3111      N3129   1.356       .  A
C3111      C3148   1.445       .  S
C3111      C3309   1.491       .  S
N3112      N3129   1.333       .  A
N3112      N3134   1.314       .  A
C3113      N3138   1.355       .  A
C3113      C3151   1.478       .  S
C3113      H3158   1.081       .  S
H3114      C3155   1.082       .  S
C3115      N3139   1.328       .  A
C3115      C3119   1.436       .  S
C3115      H3144   1.081       .  S
Co3116     N3134   2.052       .  S
Co3116     N3124   2.037       .  S
Co3116     N3156   2.075       .  S
Co3116     N3132   2.045       .  S
N3117      C3155   1.352       .  A
N3117      N3124   1.324       .  A
Co3118     N3121   2.132       .  S
Co3118     N3125   2.139       .  S
Co3118    Cl3160   2.506   1_655  S
C3119      N3157   1.362       .  A
C3119      C3242   1.479       .  S
N3120      N3127   1.315       .  A
N3120      N3150   1.322       .  A
N3120     Co3153   2.057       .  S
N3121      N3139   1.324       .  A
N3121      N3157   1.334       .  A
N3122      C3151   1.330       .  A
N3122      N3132   1.313       .  A
H3123      C3148   1.080       .  S
N3124      N3145   1.312       .  A
N3125      N3143   1.324       .  A
N3125      N3130   1.336       .  A
C3126      N3130   1.364       .  A
C3126      C3154   1.434       .  S
C3126      C3226   1.483       .  S
N3127      C3142   1.354       .  A
N3127     Co3149   2.115   1_655  S
C3128      N3156   1.338       .  A
C3128      C3131   1.445       .  S
C3128      H3162   1.078       .  S
C3131      N3152   1.354       .  A
C3131      C3306   1.487       .  S
N3132      N3138   1.324       .  A
N3133      C3159   1.358       .  A
N3133      N3135   1.315       .  A
N3133     Co3149   2.117   1_655  S
N3134      C3148   1.342       .  A
N3135      N3163   1.319       .  A
N3135     Co3153   2.052       .  S
H3136      C3159   1.076       .  S
H3137      C3154   1.082       .  S
N3139     Co3153   2.043       .  S
N3140      N3152   1.335       .  A
N3140      N3156   1.316       .  A
C3141      N3145   1.329       .  A
C3141      C3155   1.472       .  S
C3141      C3246   1.472       .  S
C3142      C3161   1.461       .  S
C3142      H3146   1.069       .  S
N3143      C3154   1.327       .  A
N3143     Co3153   2.037       .  S
C3147      N3163   1.339       .  A
C3147      C3159   1.462       .  S
C3147      C3274   1.474       .  S
Co3149    Cl3160   2.491       .  S
N3150      C3161   1.342       .  A
C3151      C3230   1.473       .  S
Co3153    Cl3160   2.388   1_655  S
C3161      C3278   1.483       .  S
C3164      N3182   1.360       .  A
C3164      C3201   1.436       .  S
C3164      C3237   1.477       .  S
N3165      N3182   1.333       .  A
N3165      N3187   1.323       .  A
N3165     Co3202   2.126       .  S
C3166      N3191   1.355       .  A
C3166      C3204   1.460       .  S
C3166      H3211   1.070       .  S
H3167      C3208   1.075       .  S
C3168      N3192   1.338       .  A
C3168      C3172   1.445       .  S
C3168      H3197   1.078       .  S
Co3169     N3187   2.036       .  S
Co3169     N3177   2.046       .  S
Co3169     N3209   2.045       .  S
Co3169     N3185   2.050       .  S
N3170      C3208   1.358       .  A
N3170      N3177   1.314       .  A
Co3171     N3174   2.099       .  S
Co3171     N3178   2.126       .  S
Co3171    Cl3213   2.486       .  S
C3172      N3210   1.352       .  A
C3172      C3269   1.483       .  S
N3173      N3180   1.325       .  A
N3173      N3203   1.313       .  A
N3173     Co3206   2.051       .  S
N3174      N3192   1.315       .  A
N3174      N3210   1.333       .  A
N3175      C3204   1.339       .  A
N3175      N3185   1.319       .  A
H3176      C3201   1.082       .  S
N3177      N3198   1.318       .  A
N3178      N3196   1.316       .  A
N3178      N3183   1.332       .  A
C3179      N3183   1.353       .  A
C3179      C3207   1.446       .  S
C3179      C3266   1.489       .  S
N3180      C3195   1.354       .  A
C3181      N3209   1.329       .  A
C3181      C3184   1.436       .  S
C3181      H3215   1.081       .  S
C3184      N3205   1.364       .  A
C3184      C3222   1.478       .  S
N3185      N3191   1.315       .  A
N3186      C3212   1.356       .  A
N3186      N3188   1.324       .  A
N3187      C3201   1.325       .  A
N3188      N3216   1.313       .  A
N3188     Co3206   2.034       .  S
H3189      C3212   1.081       .  S
H3190      C3207   1.079       .  S
N3192     Co3206   2.074       .  S
N3193      N3205   1.334       .  A
N3193      N3209   1.324       .  A
N3193     Co3202   2.137       .  S
C3194      N3198   1.338       .  A
C3194      C3208   1.463       .  S
C3194      C3301   1.473       .  S
C3195      C3214   1.476       .  S
C3195      H3199   1.082       .  S
N3196      C3207   1.343       .  A
N3196     Co3206   2.059       .  S
C3200      N3216   1.330       .  A
C3200      C3212   1.479       .  S
C3200      C3218   1.480       .  S
N3203      C3214   1.331       .  A
C3204      C3297   1.476       .  S
Co3206    Cl3213   2.393       .  S
C3214      C3234   1.472       .  S
C3217      C3218   1.365       .  D
C3217      H3219   1.086       .  S
C3218      H3220   1.086       .  S
C3221      C3222   1.363       .  D
C3221      H3223   1.085       .  S
C3222      H3224   1.085       .  S
C3225      C3226   1.364       .  D
C3225      H3227   1.086       .  S
C3226      H3228   1.086       .  S
C3229      C3230   1.361       .  D
C3229      H3231   1.086       .  S
C3230      H3232   1.085       .  S
C3233      C3234   1.359       .  D
C3233      H3235   1.086       .  S
C3234      H3236   1.085       .  S
C3237      C3238   1.362       .  D
C3237      H3239   1.086       .  S
C3238      H3240   1.086       .  S
C3241      C3242   1.363       .  D
C3241      H3243   1.085       .  S
C3242      H3244   1.086       .  S
C3245      C3246   1.365       .  D
C3245      H3247   1.086       .  S
C3246      H3248   1.086       .  S
C3249      C3250   1.354       .  D
C3249      H3251   1.083       .  S
C3250      H3252   1.086       .  S
C3253      C3254   1.348       .  D
C3253      H3255   1.082       .  S
C3254      H3256   1.086       .  S
C3257      C3258   1.349       .  D
C3257      H3259   1.085       .  S
C3258      H3260   1.085       .  S
C3261      C3262   1.344       .  D
C3261      H3263   1.085       .  S
C3262      H3264   1.083       .  S
C3265      C3266   1.362       .  D
C3265      H3267   1.086       .  S
C3266      H3268   1.086       .  S
C3269      C3270   1.355       .  D
C3269      H3271   1.085       .  S
C3270      H3272   1.082       .  S
C3273      C3274   1.353       .  D
C3273      H3275   1.081       .  S
C3274      H3276   1.088       .  S
C3277      C3278   1.361       .  D
C3277      H3279   1.086       .  S
C3278      H3280   1.084       .  S
C3281      C3282   1.351       .  D
C3281      H3283   1.083       .  S
C3282      H3284   1.086       .  S
C3285      C3286   1.352       .  D
C3285      H3287   1.086       .  S
C3286      H3288   1.083       .  S
C3289      C3290   1.341       .  D
C3289      H3291   1.085       .  S
C3290      H3292   1.083       .  S
C3293      C3294   1.350       .  D
C3293      H3295   1.085       .  S
C3294      H3296   1.085       .  S
C3297      C3298   1.357       .  D
C3297      H3299   1.085       .  S
C3298      H3300   1.086       .  S
C3301      C3302   1.352       .  D
C3301      H3303   1.088       .  S
C3302      H3304   1.081       .  S
C3305      C3306   1.356       .  D
C3305      H3307   1.082       .  S
C3306      H3308   1.086       .  S
C3309      C3310   1.362       .  D
C3309      H3311   1.086       .  S
C3310      H3312   1.086       .  S
