geometry optimzed in LAMMPS
_audit_creation_date              2020-11-30 
_audit_creation_method            'lammps2cif' 
_symmetry_space_group_name_H-M    'P1' 
_symmetry_Int_Tables_number       1 
_symmetry_cell_setting            triclinic 
loop_ 
_symmetry_equiv_pos_as_xyz 
  x,y,z 
_cell_length_a                    45.18023983 
_cell_length_b                    45.51730445813458 
_cell_length_c                    38.28686394544396 
_cell_angle_alpha                 89.98494468438741 
_cell_angle_beta                  90.10523645498331 
_cell_angle_gamma                 119.73100051446329 
loop_ 
_atom_site_label 
_atom_site_type_symbol 
_atom_site_fract_x 
_atom_site_fract_y 
_atom_site_fract_z 
_atom_site_charge 
C1          C  0.16868766  0.05818809  0.23154266     0.79800
N2          N  0.15553565  0.07728179  0.24374300    -0.78500
C3          C  0.16873656  0.11001732  0.23341238     0.82200
N4          N  0.19516419  0.12340338  0.21049466    -0.78500
C5          C  0.20835814  0.10431025  0.19814314     0.82300
N6          N  0.19471684  0.07161532  0.20838213    -0.80200
C7          C  0.04408373  0.18269587  0.26328045     0.79800
N8          N  0.06304085  0.16823870  0.25441392    -0.78500
C9          C  0.09583361  0.18156874  0.26517913     0.82200
N10         N  0.10980415  0.20987311  0.28534013    -0.78500
C11         C  0.09107566  0.22462483  0.29449188     0.82300
N12         N  0.05821220  0.21083046  0.28357687    -0.80200
C13         C  0.34702081  0.05731165  0.23181601     0.79800
N14         N  0.37983719  0.07688352  0.24219503    -0.78500
C15         C  0.39872932  0.10939983  0.23150015     0.82200
N16         N  0.38450811  0.12266251  0.20995296    -0.78500
C17         C  0.35163045  0.10348674  0.19916921     0.82300
N18         N  0.33299837  0.07070383  0.20996388    -0.80200
C19         C  0.35031278  0.29072406  0.22987433     0.79800
N20         N  0.33491221  0.26246524  0.20950972    -0.78500
C21         C  0.35306673  0.24794954  0.19749054     0.82200
N22         N  0.38663216  0.26185551  0.20580756    -0.78500
C23         C  0.40211851  0.28999301  0.22592044     0.82300
N24         N  0.38393193  0.30434009  0.23758324    -0.80200
C25         C  0.27962253  0.41502992  0.26775829     0.79800
N26         N  0.25093124  0.40106001  0.28754299    -0.78500
C27         C  0.23644505  0.36821115  0.29786918     0.82200
N28         N  0.25072940  0.34925406  0.28820067    -0.78500
C29         C  0.27931746  0.36291584  0.26827867     0.82300
N30         N  0.29372022  0.39587088  0.25849102    -0.80200
C31         C  0.09805147  0.41575429  0.26111188     0.79800
N32         N  0.11015685  0.40176015  0.28427508    -0.78500
C33         C  0.09089293  0.36882921  0.29366428     0.82200
N34         N  0.05883732  0.35007893  0.28048492    -0.78500
C35         C  0.04627052  0.36396018  0.25742515     0.82300
N36         N  0.06621057  0.39680394  0.24785200    -0.80200
Fe37       Fe  0.08714597  0.29500437  0.37021908     1.65800
Fe38       Fe  0.16283609  0.37002458  0.37148964     1.73200
Fe39       Fe  0.16298979  0.29482220  0.37181610     1.54400
O40         O  0.13243809  0.26138661  0.40952530    -0.82100
O41         O  0.19744151  0.37378260  0.33413398    -0.80400
O42         O  0.08293894  0.26095798  0.40815208    -0.84600
O43         O  0.08481761  0.26262230  0.33120023    -0.79500
O44         O  0.19520725  0.32406217  0.41118006    -0.81300
O45         O  0.13371058  0.37353806  0.33197414    -0.84000
C46         C  0.10429740  0.25184752  0.32052388     0.96800
C47         C  0.10214510  0.25032321  0.41994079     1.04200
O48         O  0.13763454  0.31994113  0.37112237    -1.13000
O49         O  0.13195267  0.37336116  0.40881746    -0.75400
O50         O  0.08321723  0.32419480  0.40923712    -0.78900
O51         O  0.13392449  0.26209447  0.33272904    -0.79600
C52         C  0.10219312  0.35409716  0.42034929     0.95700
O53         O  0.08395723  0.32538805  0.33206234    -0.77600
O54         O  0.19495247  0.37290585  0.41135371    -0.82800
C55         C  0.20831577  0.35461083  0.32309834     0.98300
C56         C  0.20519662  0.35345822  0.42317583     1.04200
O57         O  0.19717288  0.32471891  0.33415017    -0.78400
C58         C  0.10367389  0.35489588  0.32053304     1.02500
C59         C  0.34901212  0.05629852  0.01558520     0.79800
N60         N  0.38203445  0.07534821  0.00568292    -0.78500
C61         C  0.40080983  0.10816811  0.01557310     0.82200
N62         N  0.38646978  0.12207853  0.03604710    -0.78500
C63         C  0.35342008  0.10320198  0.04638097     0.82300
N64         N  0.33480462  0.07034935  0.03606705    -0.80200
C65         C  0.27141882  0.41165876  0.48470219     0.79800
N66         N  0.24447042  0.39846174  0.46242486    -0.78500
C67         C  0.23117132  0.36611051  0.45074657     0.82200
N68         N  0.24524550  0.34711229  0.46107017    -0.78500
C69         C  0.27234696  0.36017360  0.48315568     0.82300
N70         N  0.28518109  0.39239638  0.49468947    -0.80200
C71         C  0.39769820  0.28828934  0.01211925     0.79800
N72         N  0.38451123  0.26108135  0.03383590    -0.78500
C73         C  0.35147815  0.24659107  0.04448762     0.82200
N74         N  0.33168841  0.25966602  0.03361385    -0.78500
C75         C  0.34466143  0.28685909  0.01201936     0.82300
N76         N  0.37760064  0.30103155  0.00170562    -0.80200
C77         C  0.04114477  0.36318093  0.47681663     0.79800
N78         N  0.05554762  0.34910240  0.45676844    -0.78500
C79         C  0.08844161  0.36787332  0.44623067     0.82200
N80         N  0.10704476  0.40086954  0.45605594    -0.78500
C81         C  0.09285825  0.41520098  0.47613732     0.82300
N82         N  0.05977258  0.39627028  0.48611047    -0.80200
C83         C  0.16721314  0.05818728  0.01114520     0.79800
N84         N  0.15410139  0.07771017  0.00024521    -0.78500
C85         C  0.16752635  0.11032566  0.01068821     0.82200
N86         N  0.19461997  0.12349034  0.03287210    -0.78500
C87         C  0.20825343  0.10432056  0.04402906     0.82300
N88         N  0.19434760  0.07159750  0.03324041    -0.80200
C89         C  0.04036335  0.17880075  0.47378638     0.79800
N90         N  0.05947824  0.16459569  0.48314639    -0.78500
C91         C  0.09292553  0.17945941  0.47439858     0.82200
N92         N  0.10713311  0.20831892  0.45528325    -0.78500
C93         C  0.08808202  0.22239844  0.44512636     0.82300
N94         N  0.05470345  0.20760867  0.45447778    -0.80200
Fe95       Fe  0.27885080  0.10141651  0.12126176     1.65800
Fe96       Fe  0.27869593  0.17685168  0.12150287     1.73200
Fe97       Fe  0.35439980  0.17636896  0.12177554     1.54400
O98         O  0.35736123  0.14660678  0.16094492    -0.82100
O99         O  0.30874504  0.20975936  0.08304242    -0.80400
O100        O  0.30838957  0.09764827  0.16037306    -0.84600
O101        O  0.30921423  0.09780268  0.08315666    -0.79500
O102        O  0.35751290  0.20974632  0.15979796    -0.81300
O103        O  0.24541664  0.14711340  0.08271714    -0.84000
C104        C  0.33932630  0.11679721  0.07221562     0.96800
C105        C  0.33810623  0.11684169  0.17229332     1.04200
O106        O  0.30397830  0.15154160  0.12149767    -1.13000
O107        O  0.24537194  0.14735453  0.15995606    -0.75400
O108        O  0.24524225  0.09831870  0.15936314    -0.78900
O109        O  0.35840158  0.14645546  0.08376969    -0.79600
C110        C  0.23479475  0.11760450  0.17114979     0.95700
O111        O  0.24588562  0.09836698  0.08220591    -0.77600
O112        O  0.30841359  0.21013475  0.16035485    -0.82800
C113        C  0.33849198  0.21997010  0.07127087     0.98300
C114        C  0.33846165  0.22058698  0.17147459     1.04200
O115        O  0.35787640  0.20930976  0.08263647    -0.78400
C116        C  0.23510317  0.11755378  0.07088727     1.02500
C117        C  0.11270854  0.16260506  0.48291420    -0.05900
C118        C  0.14496709  0.18071963  0.49858585    -0.33300
C119        C  0.16369759  0.16436137  0.00772878     0.35900
C120        C  0.15015519  0.12956409  0.00032522    -0.06300
C121        C  0.11791606  0.11208542  0.48377412    -0.33200
C122        C  0.09934745  0.12812517  0.47536829     0.35800
H123        H  0.15560300  0.20739166  0.50432988     0.16200
O124        O  0.19484053  0.18279109  0.02363147    -0.60700
H125        H  0.10675909  0.08548584  0.47745659     0.16200
O126        O  0.06860442  0.11011155  0.45855494    -0.60800
H127        H  0.05186585  0.09751681  0.47723262     0.43200
H128        H  0.18972067  0.18325031  0.04874230     0.43100
C129        C  0.11241454  0.45171424  0.48489361    -0.05900
C130        C  0.14728573  0.46776551  0.99138479    -0.33300
C131        C  0.16583804  0.50221427  0.00042786     0.35900
C132        C  0.14916805  0.02174532  0.00189602    -0.06300
C133        C  0.11433720  0.00606900  0.49381781    -0.33200
C134        C  0.09613681  0.47125974  0.48620382     0.35800
H135        H  0.16046516  0.45338014  0.98974942     0.16200
O136        O  0.20033342  0.01742701  0.00499742    -0.60700
H137        H  0.10087960  0.02022452  0.49443811     0.16200
O138        O  0.06205353  0.45725129  0.47894568    -0.60800
H139        H  0.06068093  0.45905169  0.45324422     0.43200
H140        H  0.20261964  0.51152761  0.03070226     0.43100
C141        C  0.00462358  0.34357173  0.48560659    -0.05900
C142        C  0.49010339  0.31129884  0.49669825    -0.33300
C143        C  0.45547262  0.29259448  0.50573531     0.35900
C144        C  0.43443816  0.30653646  0.00257277    -0.06300
C145        C  0.44897769  0.34001390  0.99036287    -0.33200
C146        C  0.48361062  0.35889324  0.98237910     0.35800
H147        H  0.50571176  0.29939295  0.49844174     0.16200
O148        O  0.44239150  0.25975334  0.51657489    -0.60700
H149        H  0.43360472  0.35205358  0.98733175     0.16200
O150        O  0.99544985  0.38886107  0.96474257    -0.60800
H151        H  0.99628506  0.40380489  0.98401992     0.43200
H152        H  0.43500066  0.24600817  0.49490159     0.43100
C153        C  0.32533493  0.30442094  0.00407590    -0.05900
C154        C  0.34292989  0.33986846  0.00418811    -0.33300
C155        C  0.32603465  0.35801958  0.99815457     0.35900
C156        C  0.29039507  0.34118671  0.49123186    -0.06300
C157        C  0.27276180  0.30555939  0.49123419    -0.33200
C158        C  0.28992780  0.28750887  0.49810062     0.35800
H159        H  0.37006456  0.35378715  0.00952868     0.16200
O160        O  0.34480550  0.39267520  0.99778367    -0.60700
H161        H  0.24560943  0.29167291  0.48605711     0.16200
O162        O  0.27202897  0.25281760  0.49784981    -0.60800
H163        H  0.27396430  0.24627813  0.47361340     0.43200
H164        H  0.34772889  0.39957902  0.02269024     0.43100
C165        C  0.43730966  0.12732961  0.00651928    -0.05900
C166        C  0.45152126  0.15992736  0.99229871    -0.33300
C167        C  0.48588400  0.17758214  0.98211184     0.35900
C168        C  0.00362233  0.16120148  0.48222255    -0.06300
C169        C  0.49103286  0.12889784  0.49841410    -0.33200
C170        C  0.45664182  0.11089800  0.50761152     0.35800
H171        H  0.43575299  0.17143713  0.98837365     0.16200
O172        O  0.00390524  0.21330489  0.99394818    -0.60700
H173        H  0.50571270  0.11600864  0.49999361     0.16200
O174        O  0.44330391  0.07837398  0.51961271    -0.60800
H175        H  0.44460024  0.06522112  0.49960674     0.43200
H176        H  0.01386762  0.21915387  0.01774691     0.43100
C177        C  0.32971110  0.01989149  0.00642753    -0.05900
C178        C  0.29407555  0.00330768  0.00244317    -0.33300
C179        C  0.27316037  0.46727995  0.99536626     0.35900
C180        C  0.28960236  0.44815061  0.49335305    -0.06300
C181        C  0.32519694  0.46469211  0.49599143    -0.33200
C182        C  0.34517927  0.99994824  0.50565872     0.35800
H183        H  0.28054487  0.01723487  0.00551433     0.16200
O184        O  0.23864603  0.45238218  0.99014359    -0.60700
H185        H  0.33873930  0.45086652  0.49228160     0.16200
O186        O  0.37944299  0.01434410  0.51200693    -0.60800
H187        H  0.38986028  0.01587108  0.48881168     0.43200
H188        H  0.23592465  0.45790146  0.96570671     0.43100
C189        C  0.33184577  0.30863053  0.24091927    -0.05900
C190        C  0.29617111  0.29096934  0.24471524    -0.33300
C191        C  0.27856681  0.30796760  0.25437564     0.35900
C192        C  0.29656497  0.34333711  0.25955258    -0.06300
C193        C  0.33212560  0.36077061  0.25604803    -0.33200
C194        C  0.34971298  0.34391771  0.24697572     0.35800
H195        H  0.28186556  0.26391212  0.24025108     0.16200
O196        O  0.24372339  0.29001563  0.25708413    -0.60700
H197        H  0.34659865  0.38784551  0.26035622     0.16200
O198        O  0.38444980  0.36258861  0.24340952    -0.60800
H199        H  0.38835557  0.36924064  0.21844717     0.43200
H200        H  0.23910499  0.28030770  0.28096336     0.43100
C201        C  0.01002461  0.34466003  0.24585852    -0.05900
C202        C  0.49114591  0.30878083  0.25083058    -0.33300
C203        C  0.45607689  0.29052774  0.24364683     0.35900
C204        C  0.43927320  0.30754060  0.23143492    -0.06300
C205        C  0.45819746  0.34227931  0.22461184    -0.33200
C206        C  0.49329341  0.36038791  0.23068240     0.35800
H207        H  0.50336055  0.29537082  0.26138253     0.16200
O208        O  0.43831023  0.25634045  0.24971416    -0.60700
H209        H  0.44564936  0.35553409  0.21444423     0.16200
O210        O  0.01082735  0.39517217  0.22378724    -0.60800
H211        H  0.51732852  0.39616745  0.19875968     0.43200
H212        H  0.43052354  0.25393567  0.27428203     0.43100
C213        C  0.29676455  0.45138815  0.25837922    -0.05900
C214        C  0.27746801  0.46705865  0.25043094    -0.33300
C215        C  0.29280646  0.00104031  0.24156789     0.35900
C216        C  0.32869760  0.02084971  0.24147467    -0.06300
C217        C  0.34847445  0.50525875  0.24934694    -0.33200
C218        C  0.33259063  0.47089553  0.25770035     0.35800
H219        H  0.24987967  0.45247042  0.25083393     0.16200
O220        O  0.27289849  0.01496267  0.23309297    -0.60700
H221        H  0.37553134  0.01985844  0.25099188     0.16200
O222        O  0.35244466  0.45699863  0.26662191    -0.60800
H223        H  0.36009948  0.45225393  0.24411812     0.43200
H224        H  0.26968757  0.02421821  0.25531277     0.43100
C225        C  0.00729176  0.16519976  0.25449552    -0.05900
C226        C  0.48926598  0.12967239  0.24916351    -0.33300
C227        C  0.45450973  0.11162623  0.24191266     0.35900
C228        C  0.43551383  0.12850409  0.23984296    -0.06300
C229        C  0.45222722  0.16371144  0.24487033    -0.33200
C230        C  0.48725193  0.18185069  0.25252781     0.35800
H231        H  0.00420446  0.11629115  0.25053324     0.16200
O232        O  0.43951713  0.07740452  0.23645362    -0.60700
H233        H  0.43805412  0.17712344  0.24324162     0.16200
O234        O  0.50266816  0.21612083  0.25781899    -0.60800
H235        H  0.50837275  0.22626031  0.23414830     0.43200
H236        H  0.44092778  0.07474598  0.21090422     0.43100
C237        C  0.11789516  0.45213389  0.25314158    -0.05900
C238        C  0.13405600  0.47539426  0.28040331    -0.33300
C239        C  0.15083129  0.01037166  0.27383904     0.35900
C240        C  0.15195288  0.02194286  0.23958690    -0.06300
C241        C  0.13720743  0.49888488  0.21231753    -0.33200
C242        C  0.11962628  0.46410069  0.21888929     0.35800
H243        H  0.13280927  0.46654459  0.30692914     0.16200
O244        O  0.16627732  0.03284936  0.30069575    -0.60700
H245        H  0.13687573  0.00730405  0.18600756     0.16200
O246        O  0.10416364  0.44203525  0.19171475    -0.60800
H247        H  0.12165806  0.43689164  0.18269459     0.43200
H248        H  0.14823645  0.03672610  0.31061474     0.43100
C249        C  0.15122026  0.12903901  0.24312855    -0.05900
C250        C  0.11572586  0.11113559  0.24730212    -0.33300
C251        C  0.09755413  0.12794799  0.25396299     0.35900
C252        C  0.11486964  0.16349203  0.25760455    -0.08900
C253        C  0.15057319  0.18146611  0.25440327    -0.33200
C254        C  0.16870121  0.16457368  0.24664113     0.35800
H255        H  0.10169165  0.08385235  0.24452724     0.16200
O256        O  0.06288735  0.10910525  0.25805450    -0.60700
H257        H  0.16442768  0.20873514  0.25731491     0.16200
O258        O  0.20350983  0.18288751  0.24362591    -0.60800
H259        H  0.20784370  0.19252882  0.21972163     0.43200
H260        H  0.05349544  0.10357290  0.23400313     0.43100
C261        C  0.16886153  0.05849944  0.73217433     0.79800
N262        N  0.15560206  0.07750319  0.74436198    -0.78500
C263        C  0.16869313  0.11022020  0.73401991     0.82200
N264        N  0.19511194  0.12369291  0.71108207    -0.78500
C265        C  0.20840828  0.10469049  0.69871867     0.82300
N266        N  0.19487307  0.07200421  0.70898441    -0.80200
C267        C  0.04381630  0.18276536  0.76399454     0.79800
N268        N  0.06269459  0.16821725  0.75512214    -0.78500
C269        C  0.09550041  0.18149292  0.76582929     0.82200
N270        N  0.10954902  0.20982997  0.78593788    -0.78500
C271        C  0.09090990  0.22467531  0.79507828     0.82300
N272        N  0.05803800  0.21094058  0.78422339    -0.80200
C273        C  0.34727551  0.05767538  0.73169040     0.79800
N274        N  0.38008333  0.07723997  0.74209122    -0.78500
C275        C  0.39898395  0.10977539  0.73145248     0.82200
N276        N  0.38475398  0.12306217  0.70992740    -0.78500
C277        C  0.35186230  0.10388519  0.69914754     0.82300
N278        N  0.33324524  0.07109508  0.70990053    -0.80200
C279        C  0.35067371  0.29142928  0.72952388     0.79800
N280        N  0.33522324  0.26302726  0.70939346    -0.78500
C281        C  0.35334370  0.24842815  0.69752634     0.82200
N282        N  0.38691522  0.26235689  0.70586309    -0.78500
C283        C  0.40243883  0.29063579  0.72579632     0.82300
N284        N  0.38430846  0.30513883  0.73721315    -0.80200
C285        C  0.27959276  0.41540454  0.76817977     0.79800
N286        N  0.25097041  0.40131169  0.78805117    -0.78500
C287        C  0.23667829  0.36847684  0.79836333     0.82200
N288        N  0.25112554  0.34967990  0.78862760    -0.78500
C289        C  0.27965796  0.36345780  0.76859403     0.82300
N290        N  0.29381009  0.39638883  0.75878334    -0.80200
C291        C  0.09842240  0.41598043  0.76166896     0.79800
N292        N  0.11052637  0.40199238  0.78483480    -0.78500
C293        C  0.09122983  0.36907665  0.79426090     0.82200
N294        N  0.05914623  0.35034922  0.78113395    -0.78500
C295        C  0.04658998  0.36424136  0.75807853     0.82300
N296        N  0.06656670  0.39705857  0.74844777    -0.80200
Fe297      Fe  0.08733992  0.29518307  0.87078316     1.65800
Fe298      Fe  0.16305485  0.37015356  0.87210669     1.73200
Fe299      Fe  0.16315158  0.29492397  0.87211721     1.54400
O300        O  0.13277686  0.26166336  0.91004439    -0.82100
O301        O  0.19787553  0.37396666  0.83498693    -0.80400
O302        O  0.08315724  0.26100686  0.90854823    -0.84600
O303        O  0.08490113  0.26290260  0.83163176    -0.79500
O304        O  0.19568608  0.32427748  0.91119403    -0.81300
O305        O  0.13412373  0.37368673  0.83239820    -0.84000
C306        C  0.10424655  0.25194673  0.82103620     0.96800
C307        C  0.10243467  0.25047474  0.92038215     1.04200
O308        O  0.13782837  0.32007894  0.87162736    -1.13000
O309        O  0.13198696  0.37356242  0.90920210    -0.75400
O310        O  0.08342591  0.32425334  0.90991147    -0.78900
O311        O  0.13383095  0.26205118  0.83327056    -0.79600
C312        C  0.10226663  0.35425281  0.92081046     0.95700
O313        O  0.08418566  0.32571871  0.83280012    -0.77600
O314        O  0.19495051  0.37288169  0.91213778    -0.82800
C315        C  0.20852593  0.35473364  0.82357320     0.98300
C316        C  0.20549177  0.35352076  0.92351375     1.04200
O317        O  0.19711935  0.32467233  0.83421186    -0.78400
C318        C  0.10400286  0.35513807  0.82111706     1.02500
C319        C  0.34799463  0.05567609  0.51625281     0.79800
N320        N  0.38096553  0.07450282  0.50603955    -0.78500
C321        C  0.39997938  0.10745106  0.51553851     0.82200
N322        N  0.38583451  0.12166215  0.53590177    -0.78500
C323        C  0.35283626  0.10301874  0.54650089     0.82300
N324        N  0.33403563  0.07006094  0.53658442    -0.80200
C325        C  0.27184344  0.41146794  0.98509068     0.79800
N326        N  0.24489498  0.39835354  0.96280840    -0.78500
C327        C  0.23159089  0.36607967  0.95094012     0.82200
N328        N  0.24567463  0.34703663  0.96103591    -0.78500
C329        C  0.27277558  0.35997031  0.98311269     0.82300
N330        N  0.28558337  0.39212098  0.99489298    -0.80200
C331        C  0.39789674  0.28930866  0.51302704     0.79800
N332        N  0.38462769  0.26189900  0.53448169    -0.78500
C333        C  0.35151133  0.24723727  0.54492795     0.82200
N334        N  0.33172915  0.26033166  0.53409151    -0.78500
C335        C  0.34477439  0.28770996  0.51274228     0.82300
N336        N  0.37779423  0.30205353  0.50264155    -0.80200
C337        C  0.04084602  0.36332489  0.97667793     0.79800
N338        N  0.05539293  0.34925433  0.95683709    -0.78500
C339        C  0.08834710  0.36805394  0.94648433     0.82200
N340        N  0.10684706  0.40106811  0.95628573    -0.78500
C341        C  0.09250025  0.41536591  0.97619077     0.82300
N342        N  0.05937544  0.39639990  0.98598089    -0.80200
C343        C  0.16714789  0.05837294  0.51128918     0.79800
N344        N  0.15398149  0.07786486  0.50040927    -0.78500
C345        C  0.16723132  0.11042157  0.51101335     0.82200
N346        N  0.19424026  0.12358594  0.53331330    -0.78500
C347        C  0.20794750  0.10447506  0.54445664     0.82300
N348        N  0.19419003  0.07179840  0.53352405    -0.80200
C349        C  0.04070389  0.17877358  0.97409046     0.79800
N350        N  0.05984882  0.16455743  0.98329012    -0.78500
C351        C  0.09327927  0.17945697  0.97447889     0.82200
N352        N  0.10746012  0.20838454  0.95548706    -0.78500
C353        C  0.08839482  0.22249148  0.94549377     0.82300
N354        N  0.05501791  0.20764947  0.95488050    -0.80200
Fe355      Fe  0.27873605  0.10174847  0.62164828     1.65800
Fe356      Fe  0.27864551  0.17719226  0.62180385     1.73200
Fe357      Fe  0.35436302  0.17665780  0.62176430     1.54400
O358        O  0.35751537  0.14690275  0.66081084    -0.82100
O359        O  0.30862601  0.21008850  0.58323795    -0.80400
O360        O  0.30839693  0.09809188  0.66070323    -0.84600
O361        O  0.30897123  0.09799591  0.58351813    -0.79500
O362        O  0.35765300  0.21005750  0.65989756    -0.81300
O363        O  0.24517803  0.14735170  0.58312054    -0.84000
C364        C  0.33899182  0.11691546  0.57230544     0.96800
C365        C  0.33824228  0.11722773  0.67235571     1.04200
O366        O  0.30391461  0.15186941  0.62171681    -1.13000
O367        O  0.24538733  0.14777284  0.66042735    -0.75400
O368        O  0.24522873  0.09873195  0.65982117    -0.78900
O369        O  0.35814531  0.14667461  0.58360131    -0.79600
C370        C  0.23481148  0.11802353  0.67165069     0.95700
O371        O  0.24565793  0.09860800  0.58264291    -0.77600
O372        O  0.30858935  0.21054214  0.66052946    -0.82800
C373        C  0.33841270  0.22039828  0.57150086     0.98300
C374        C  0.33866252  0.22097232  0.67159120     1.04200
O375        O  0.35778506  0.20969311  0.58277578    -0.78400
C376        C  0.23483074  0.11776269  0.57132497     1.02500
C377        C  0.11307960  0.16259515  0.98280926    -0.05900
C378        C  0.14535648  0.18068328  0.99844116    -0.33300
C379        C  0.16331027  0.16441847  0.50797215     0.35900
C380        C  0.14979667  0.12961044  0.50063400    -0.06300
C381        C  0.11827767  0.11208032  0.98345529    -0.33200
C382        C  0.09971300  0.12813905  0.97514829     0.35800
H383        H  0.15599762  0.20734305  0.00425352     0.16200
O384        O  0.19444572  0.18288816  0.52387700    -0.60700
H385        H  0.10710912  0.08549401  0.97706878     0.16200
O386        O  0.06896244  0.11016844  0.95833734    -0.60800
H387        H  0.05224631  0.09745656  0.97699339     0.43200
H388        H  0.18931921  0.18328301  0.54899640     0.43100
C389        C  0.11197221  0.45183044  0.98513432    -0.05900
C390        C  0.14767853  0.46756140  0.49142035    -0.33300
C391        C  0.16630557  0.50207704  0.50022542     0.35900
C392        C  0.14928715  0.02193740  0.50178132    -0.06300
C393        C  0.11396725  0.00573185  0.99529507    -0.33200
C394        C  0.09554220  0.47121496  0.98705926     0.35800
H395        H  0.16075557  0.45305768  0.49018013     0.16200
O396        O  0.20011312  0.01723107  0.50735195    -0.60700
H397        H  0.10044598  0.01978590  0.99696424     0.16200
O398        O  0.06136961  0.45711376  0.98022896    -0.60800
H399        H  0.05971540  0.45914320  0.95459805     0.43200
H400        H  0.20286368  0.51121635  0.53076555     0.43100
C401        C  0.00432824  0.34370644  0.98536428    -0.05900
C402        C  0.49022313  0.31070367  0.99724676    -0.33300
C403        C  0.45550242  0.29186493  0.00586287     0.35900
C404        C  0.43465597  0.30761354  0.50353120    -0.06300
C405        C  0.44939801  0.34139268  0.49222931    -0.33200
C406        C  0.48395607  0.36014416  0.48384880     0.35800
H407        H  0.50605885  0.29911582  0.99988842     0.16200
O408        O  0.44260799  0.25927280  0.01744975    -0.60700
H409        H  0.43421459  0.35372271  0.49015595     0.16200
O410        O  0.99596477  0.38920543  0.46617332    -0.60800
H411        H  0.99711224  0.40390237  0.48585148     0.43200
H412        H  0.43513357  0.24508031  0.99608147     0.43100
C413        C  0.32529956  0.30510242  0.50461741    -0.05900
C414        C  0.34285226  0.34054946  0.50398635    -0.33300
C415        C  0.32583226  0.35854311  0.49774658     0.35900
C416        C  0.29069916  0.34082896  0.99107375    -0.06300
C417        C  0.27303801  0.30519849  0.99036115    -0.33200
C418        C  0.29007072  0.28698604  0.99703841     0.35800
H419        H  0.37005992  0.35461088  0.50889056     0.16200
O420        O  0.34456302  0.39318653  0.49658672    -0.60700
H421        H  0.24596498  0.29142658  0.98475322     0.16200
O422        O  0.27216910  0.25230620  0.99607432    -0.60800
H423        H  0.27416195  0.24624088  0.97165466     0.43200
H424        H  0.34771124  0.40062981  0.52132579     0.43100
C425        C  0.43651708  0.12656350  0.50610348    -0.05900
C426        C  0.45160081  0.16048272  0.49543607    -0.33300
C427        C  0.48608139  0.17843735  0.48560836     0.35900
C428        C  0.00396105  0.16111473  0.98260156    -0.06300
C429        C  0.49238474  0.13044596  0.00185022    -0.33200
C430        C  0.45806576  0.11270047  0.01138656     0.35800
H431        H  0.43648184  0.17293708  0.49418269     0.16200
O432        O  0.00392077  0.21340334  0.49452910    -0.60700
H433        H  0.50759869  0.11839647  0.00609531     0.16200
O434        O  0.44531059  0.08153624  0.02683336    -0.60800
H435        H  0.44630462  0.06657083  0.00861035     0.43200
H436        H  0.01389912  0.21889717  0.51833749     0.43100
C437        C  0.32855002  0.01912953  0.50772670    -0.05900
C438        C  0.29313596  0.00288610  0.50210713    -0.33300
C439        C  0.27284784  0.46703977  0.49779052     0.35900
C440        C  0.28968459  0.44788065  0.99441633    -0.06300
C441        C  0.32481582  0.46393824  0.00110213    -0.33200
C442        C  0.34663855  0.00113383  0.00223949     0.35800
H443        H  0.27982520  0.01714743  0.50370002     0.16200
O444        O  0.23798051  0.45159437  0.49609526    -0.60700
H445        H  0.33823498  0.44977137  0.00053784     0.16200
O446        O  0.38121371  0.01586156  0.00665453    -0.60800
H447        H  0.39072724  0.02006112  0.98267347     0.43200
H448        H  0.23286845  0.45679344  0.47242990     0.43100
C449        C  0.33222593  0.30935499  0.74034516    -0.05900
C450        C  0.29697410  0.29134617  0.74688858    -0.33300
C451        C  0.27941766  0.30831190  0.75683498     0.35900
C452        C  0.29698413  0.34397323  0.75949054    -0.06300
C453        C  0.33218306  0.36175578  0.75305419    -0.33200
C454        C  0.34972876  0.34493239  0.74368020     0.35800
H455        H  0.28300839  0.26403094  0.74450274     0.16200
O456        O  0.24494829  0.28988378  0.76248480    -0.60700
H457        H  0.34642777  0.38906942  0.75528301     0.16200
O458        O  0.38401213  0.36382460  0.73711171    -0.60800
H459        H  0.38579259  0.36846623  0.71166465     0.43200
H460        H  0.24247279  0.28189015  0.78697273     0.43100
C461        C  0.01034137  0.34498705  0.74652763    -0.05900
C462        C  0.49113008  0.30933770  0.75201668    -0.33300
C463        C  0.45607664  0.29115632  0.74473863     0.35900
C464        C  0.43956784  0.30807649  0.73146711    -0.06300
C465        C  0.45874172  0.34262943  0.72383801    -0.33200
C466        C  0.49381903  0.36066183  0.73007539     0.35800
H467        H  0.50310157  0.29600471  0.76334111     0.16200
O468        O  0.43802170  0.25715957  0.75178102    -0.60700
H469        H  0.44639787  0.35579603  0.71292423     0.16200
O470        O  0.01105474  0.39568281  0.72521007    -0.60800
H471        H  0.51824126  0.39565025  0.69744890     0.43200
H472        H  0.43007943  0.25549832  0.77620968     0.43100
C473        C  0.29663335  0.45177619  0.75895308    -0.05900
C474        C  0.27729663  0.46732454  0.75065179    -0.33300
C475        C  0.29304402  0.00143520  0.74145929     0.35900
C476        C  0.32893892  0.02120968  0.74130492    -0.06300
C477        C  0.34829319  0.50577844  0.75050803    -0.33200
C478        C  0.33244322  0.47141705  0.75880081     0.35800
H479        H  0.24971093  0.45262198  0.75070116     0.16200
O480        O  0.27315255  0.01538407  0.73301352    -0.60700
H481        H  0.37575815  0.02015656  0.75066736     0.16200
O482        O  0.35228865  0.45763817  0.76819460    -0.60800
H483        H  0.36061829  0.45333411  0.74588734     0.43200
H484        H  0.27019332  0.02488440  0.75518664     0.43100
C485        C  0.00700707  0.16532010  0.75531085    -0.05900
C486        C  0.48942727  0.13009160  0.75003587    -0.33300
C487        C  0.45469003  0.11200739  0.74269898     0.35900
C488        C  0.43575595  0.12891859  0.73997725    -0.06300
C489        C  0.45251925  0.16418582  0.74461647    -0.33200
C490        C  0.48752421  0.18235735  0.75240445     0.35800
H491        H  0.00380880  0.11635192  0.75161045     0.16200
O492        O  0.43966735  0.07770786  0.73780379    -0.60700
H493        H  0.43840303  0.17762840  0.74257197     0.16200
O494        O  0.50297959  0.21667807  0.75733651    -0.60800
H495        H  0.50880589  0.22659707  0.73357752     0.43200
H496        H  0.44136907  0.07468248  0.71237608     0.43100
C497        C  0.11828241  0.45232312  0.75362876    -0.05900
C498        C  0.13394117  0.47568059  0.78091261    -0.33300
C499        C  0.15071324  0.01058676  0.77445403     0.35900
C500        C  0.15216154  0.02222871  0.74016695    -0.06300
C501        C  0.13805477  0.49890242  0.71254746    -0.33200
C502        C  0.12046302  0.46414538  0.71924904     0.35800
H503        H  0.13230501  0.46691952  0.80753667     0.16200
O504        O  0.16597120  0.03300965  0.80139466    -0.60700
H505        H  0.13754412  0.00767039  0.68648034     0.16200
O506        O  0.10539145  0.44195910  0.69208272    -0.60800
H507        H  0.12305656  0.43687855  0.68346536     0.43200
H508        H  0.14782767  0.03676569  0.81124356     0.43100
C509        C  0.15103766  0.12910521  0.74370204    -0.05900
C510        C  0.11546898  0.11119098  0.74716185    -0.33300
C511        C  0.09722928  0.12794843  0.75379149     0.35900
C512        C  0.11454599  0.16342636  0.75815882    -0.08900
C513        C  0.15031046  0.18137394  0.75563601    -0.33200
C514        C  0.16851085  0.16455814  0.74788442     0.35800
H515        H  0.10145887  0.08396408  0.74383815     0.16200
O516        O  0.06248136  0.10909265  0.75710592    -0.60700
H517        H  0.16418068  0.20858231  0.75909223     0.16200
O518        O  0.20337190  0.18284427  0.74555287    -0.60800
H519        H  0.20816210  0.19283166  0.72179595     0.43200
H520        H  0.05357264  0.10428069  0.73284407     0.43100
C521        C  0.16917566  0.55837606  0.23197199     0.79800
N522        N  0.15599618  0.57736208  0.24439866    -0.78500
C523        C  0.16912158  0.61013885  0.23426582     0.82200
N524        N  0.19551861  0.62369577  0.21127573    -0.78500
C525        C  0.20873914  0.60468287  0.19869392     0.82300
N526        N  0.19515477  0.57195277  0.20877550    -0.80200
C527        C  0.04388220  0.68233306  0.26379130     0.79800
N528        N  0.06286997  0.66782503  0.25518252    -0.78500
C529        C  0.09553458  0.68100903  0.26635387     0.82200
N530        N  0.10933211  0.70922427  0.28663746    -0.78500
C531        C  0.09059547  0.72402931  0.29555638     0.82300
N532        N  0.05785984  0.71037917  0.28425311    -0.80200
C533        C  0.34780681  0.55745767  0.23114476     0.79800
N534        N  0.38071130  0.57697558  0.24132261    -0.78500
C535        C  0.39950603  0.60955476  0.23072693     0.82200
N536        N  0.38515364  0.62286414  0.20942750    -0.78500
C537        C  0.35222539  0.60370358  0.19882387     0.82300
N538        N  0.33366270  0.57092205  0.20957536    -0.80200
C539        C  0.35067530  0.79085646  0.22972380     0.79800
N540        N  0.33527668  0.76256358  0.20941188    -0.78500
C541        C  0.35340599  0.74796495  0.19752974     0.82200
N542        N  0.38693174  0.76180041  0.20597634    -0.78500
C543        C  0.40240668  0.78996491  0.22605866     0.82300
N544        N  0.38426576  0.80443554  0.23753615    -0.80200
C545        C  0.27954465  0.91487726  0.26834139     0.79800
N546        N  0.25074192  0.90068995  0.28793167    -0.78500
C547        C  0.23636879  0.86783173  0.29815983     0.82200
N548        N  0.25090773  0.84906945  0.28858036    -0.78500
C549        C  0.27963699  0.86294021  0.26882584     0.82300
N550        N  0.29390045  0.89592462  0.25914411    -0.80200
C551        C  0.09805391  0.91570748  0.26180858     0.79800
N552        N  0.11017602  0.90182668  0.28512111    -0.78500
C553        C  0.09098050  0.86885581  0.29449990     0.82200
N554        N  0.05901944  0.84997831  0.28115410    -0.78500
C555        C  0.04646530  0.86374132  0.25794878     0.82300
N556        N  0.06630829  0.89659436  0.24840429    -0.80200
Fe557      Fe  0.08722296  0.79491754  0.37110883     1.65800
Fe558      Fe  0.16299257  0.86990327  0.37202930     1.73200
Fe559      Fe  0.16303918  0.79464642  0.37228722     1.54400
O560        O  0.13294606  0.76173564  0.41061491    -0.82100
O561        O  0.19759116  0.87344545  0.33472826    -0.80400
O562        O  0.08312387  0.76067209  0.40888427    -0.84600
O563        O  0.08457110  0.76251009  0.33188630    -0.79500
O564        O  0.19609223  0.82438329  0.41087836    -0.81300
O565        O  0.13392511  0.87342176  0.33251092    -0.84000
C566        C  0.10382840  0.75135994  0.32150060     0.96800
C567        C  0.10253557  0.75033924  0.42085736     1.04200
O568        O  0.13772991  0.81981395  0.37177990    -1.13000
O569        O  0.13210465  0.87344884  0.40932202    -0.75400
O570        O  0.08352886  0.82413179  0.41030692    -0.78900
O571        O  0.13335681  0.76140695  0.33385943    -0.79600
C572        C  0.10241920  0.85418597  0.42108282     0.95700
O573        O  0.08397406  0.82549206  0.33312589    -0.77600
O574        O  0.19521582  0.87290917  0.41176004    -0.82800
C575        C  0.20814756  0.85412400  0.32330759     0.98300
C576        C  0.20607254  0.85375663  0.42293616     1.04200
O577        O  0.19668453  0.82406208  0.33398449    -0.78400
C578        C  0.10376794  0.85490371  0.32136071     1.02500
C579        C  0.34705067  0.55483902  0.01609649     0.79800
N580        N  0.37972672  0.57347283  0.00491908    -0.78500
C581        C  0.39915982  0.60655605  0.01392213     0.82200
N582        N  0.38553354  0.62102951  0.03474823    -0.78500
C583        C  0.35275527  0.60259368  0.04614052     0.82300
N584        N  0.33367811  0.56954974  0.03671653    -0.80200
C585        C  0.27382942  0.91275956  0.48266445     0.79800
N586        N  0.24633713  0.89924848  0.46108687    -0.78500
C587        C  0.23282211  0.86679465  0.44968717     0.82200
N588        N  0.24719753  0.84796586  0.45957248    -0.78500
C589        C  0.27482322  0.86129997  0.48094779     0.82300
N590        N  0.28787510  0.89362649  0.49224654    -0.80200
C591        C  0.39847067  0.78852235  0.01268377     0.79800
N592        N  0.38489212  0.76125716  0.03429682    -0.78500
C593        C  0.35187560  0.74713450  0.04488828     0.82200
N594        N  0.33247919  0.76069080  0.03410427    -0.78500
C595        C  0.34586807  0.78798132  0.01259574     0.82300
N596        N  0.37875179  0.80168143  0.00228742    -0.80200
C597        C  0.04107154  0.86367423  0.47678012     0.79800
N598        N  0.05560160  0.84944497  0.45712442    -0.78500
C599        C  0.08856968  0.86813962  0.44672760     0.82200
N600        N  0.10710832  0.90122177  0.45631987    -0.78500
C601        C  0.09278773  0.91568526  0.47602178     0.82300
N602        N  0.05965499  0.89681950  0.48584180    -0.80200
C603        C  0.16723568  0.55792205  0.01160014     0.79800
N604        N  0.15407494  0.57741508  0.00070644    -0.78500
C605        C  0.16747117  0.61002919  0.01115217     0.82200
N606        N  0.19457477  0.62321983  0.03330456    -0.78500
C607        C  0.20825697  0.60410454  0.04445179     0.82300
N608        N  0.19438967  0.57137644  0.03367990    -0.80200
C609        C  0.04118993  0.67854255  0.47495016     0.79800
N610        N  0.06057795  0.66455264  0.48404031    -0.78500
C611        C  0.09392794  0.67947704  0.47492456     0.82200
N612        N  0.10787629  0.70835539  0.45585600    -0.78500
C613        C  0.08864402  0.72233596  0.44601420     0.82300
N614        N  0.05528906  0.70735564  0.45559014    -0.80200
Fe615      Fe  0.27901952  0.60158192  0.12164292     1.65800
Fe616      Fe  0.27887617  0.67699843  0.12160811     1.73200
Fe617      Fe  0.35460964  0.67644162  0.12151791     1.54400
O618        O  0.35787692  0.64657400  0.16033216    -0.82100
O619        O  0.30873050  0.70985864  0.08295114    -0.80400
O620        O  0.30855640  0.59798796  0.16080073    -0.84600
O621        O  0.30937760  0.59782017  0.08366832    -0.79500
O622        O  0.35778010  0.70961957  0.15988976    -0.81300
O623        O  0.24539025  0.64701297  0.08305459    -0.84000
C624        C  0.33926203  0.61674187  0.07208899     0.96800
C625        C  0.33853210  0.61702918  0.17213808     1.04200
O626        O  0.30417101  0.65168020  0.12155904    -1.13000
O627        O  0.24571498  0.64773724  0.16035800    -0.75400
O628        O  0.24543792  0.59864726  0.15969886    -0.78900
O629        O  0.35842190  0.64662580  0.08307477    -0.79600
C630        C  0.23509745  0.61798944  0.17157594     0.95700
O631        O  0.24605292  0.59835520  0.08254109    -0.77600
O632        O  0.30885416  0.71040376  0.16021548    -0.82800
C633        C  0.33858875  0.72026258  0.07139814     0.98300
C634        C  0.33882075  0.72063271  0.17147091     1.04200
O635        O  0.35795352  0.70959658  0.08277744    -0.78400
C636        C  0.23514853  0.61744657  0.07125357     1.02500
C637        C  0.11380663  0.66258561  0.48289237    -0.05900
C638        C  0.14638416  0.68071912  0.49787934    -0.33300
C639        C  0.16369240  0.66408021  0.00832213     0.35900
C640        C  0.15012938  0.62929728  0.00080713    -0.06300
C641        C  0.11880284  0.61192565  0.48350662    -0.33200
C642        C  0.10020770  0.62803275  0.47549890     0.35800
H643        H  0.15723897  0.70745091  0.50344138     0.16200
O644        O  0.19475362  0.68241417  0.02440678    -0.60700
H645        H  0.10743181  0.58525965  0.47740571     0.16200
O646        O  0.06915408  0.60998673  0.45926994    -0.60800
H647        H  0.05278935  0.59735204  0.47821800     0.43200
H648        H  0.18950439  0.68269678  0.04950834     0.43100
C649        C  0.11224722  0.95223481  0.48463768    -0.05900
C650        C  0.14728721  0.96812248  0.99064956    -0.33300
C651        C  0.16584275  0.00257278  0.99966481     0.35900
C652        C  0.14921819  0.52146537  0.00235505    -0.06300
C653        C  0.11472924  0.50560731  0.49441046    -0.33200
C654        C  0.09593216  0.97176221  0.48539849     0.35800
H655        H  0.16051832  0.95380041  0.98880188     0.16200
O656        O  0.20026797  0.51697288  0.00612640    -0.60700
H657        H  0.10132885  0.51980812  0.49542002     0.16200
O658        O  0.06198851  0.95776186  0.47744093    -0.60800
H659        H  0.06108144  0.95940310  0.45167018     0.43200
H660        H  0.20294906  0.01201604  0.02950883     0.43100
C661        C  0.00452173  0.84411477  0.48557917    -0.05900
C662        C  0.49125808  0.81116028  0.49889886    -0.33300
C663        C  0.45654937  0.79240001  0.50758541     0.35900
C664        C  0.43518038  0.80625692  0.00297934    -0.06300
C665        C  0.44940976  0.83867885  0.98795760    -0.33200
C666        C  0.48405098  0.85732313  0.98003647     0.35800
H667        H  0.50739348  0.80007100  0.50291483     0.16200
O668        O  0.44403347  0.76050874  0.52107744    -0.60700
H669        H  0.43381974  0.85013423  0.98264335     0.16200
O670        O  0.99537072  0.88915227  0.96496171    -0.60800
H671        H  0.99618580  0.90395483  0.98437924     0.43200
H672        H  0.43739405  0.74530336  0.50049366     0.43100
C673        C  0.32690113  0.80580753  0.00407412    -0.05900
C674        C  0.34508855  0.84122827  0.00206967    -0.33300
C675        C  0.32858742  0.85960100  0.99509341     0.35900
C676        C  0.29260922  0.84210702  0.48915510    -0.06300
C677        C  0.27454241  0.80648881  0.48982858    -0.33200
C678        C  0.29127509  0.78814293  0.49724440     0.35800
H679        H  0.37239338  0.85498420  0.00641492     0.16200
O680        O  0.34784814  0.89414445  0.99257368    -0.60700
H681        H  0.24735748  0.79282978  0.48481210     0.16200
O682        O  0.27294875  0.75346830  0.49760845    -0.60800
H683        H  0.27518006  0.74641732  0.47370122     0.43200
H684        H  0.35171734  0.90249789  0.01700882     0.43100
C685        C  0.43559622  0.62570308  0.00327100    -0.05900
C686        C  0.45233452  0.66110786  0.99948337    -0.33300
C687        C  0.48692299  0.67941666  0.98998876     0.35900
C688        C  0.00443686  0.66069389  0.48389498    -0.06300
C689        C  0.48997466  0.62777394  0.49167007    -0.33200
C690        C  0.45555643  0.60946079  0.50065793     0.35800
H691        H  0.43855683  0.67463873  0.00372289     0.16200
O692        O  0.00367518  0.71324232  0.99340093    -0.60700
H693        H  0.50400282  0.61426408  0.48944729     0.16200
O694        O  0.44150296  0.57562237  0.50767651    -0.60800
H695        H  0.44159126  0.56501524  0.48507546     0.43200
H696        H  0.01243665  0.71952638  0.01760139     0.43100
C697        C  0.32734476  0.51813808  0.00847338    -0.05900
C698        C  0.29194010  0.50207557  0.00286908    -0.33300
C699        C  0.27559068  0.96873078  0.99399560     0.35900
C700        C  0.29149321  0.94916943  0.49199758    -0.06300
C701        C  0.32668623  0.96545002  0.49834632    -0.33200
C702        C  0.34417604  0.49932523  0.50243922     0.35800
H703        H  0.27887982  0.51660767  0.00379638     0.16200
O704        O  0.24085631  0.95332223  0.99040454    -0.60700
H705        H  0.34038125  0.95157528  0.49697345     0.16200
O706        O  0.37887151  0.51390262  0.50503512    -0.60800
H707        H  0.38686772  0.51466794  0.48076111     0.43200
H708        H  0.23696984  0.95855407  0.96624744     0.43100
C709        C  0.33223290  0.80880304  0.24066893    -0.05900
C710        C  0.29675397  0.79094962  0.24589032    -0.33300
C711        C  0.27918577  0.80791073  0.25583421     0.35900
C712        C  0.29698173  0.84344563  0.25983928    -0.06300
C713        C  0.33239070  0.86108823  0.25478675    -0.33200
C714        C  0.34995003  0.84425941  0.24542337     0.35800
H715        H  0.28259065  0.76374866  0.24242352     0.16200
O716        O  0.24450814  0.78966702  0.26007339    -0.60700
H717        H  0.34677144  0.88829801  0.25809170     0.16200
O718        O  0.38448263  0.86306999  0.24028480    -0.60800
H719        H  0.38727909  0.86871448  0.21504841     0.43200
H720        H  0.24100811  0.78078390  0.28427114     0.43100
C721        C  0.01031844  0.84429404  0.24614650    -0.05900
C722        C  0.49142762  0.80886408  0.25113528    -0.33300
C723        C  0.45633475  0.79057411  0.24408410     0.35900
C724        C  0.43954662  0.80749932  0.23157311    -0.06300
C725        C  0.45847522  0.84216123  0.22439852    -0.33200
C726        C  0.49357304  0.86030261  0.23038547     0.35800
H727        H  0.50364583  0.79553730  0.26189337     0.16200
O728        O  0.43854050  0.75645866  0.25056301    -0.60700
H729        H  0.44592422  0.85533564  0.21402202     0.16200
O730        O  0.01102725  0.89465197  0.22371426    -0.60800
H731        H  0.51748308  0.89582029  0.19815487     0.43200
H732        H  0.43068592  0.75434002  0.27507901     0.43100
C733        C  0.29647065  0.95124323  0.25906800    -0.05900
C734        C  0.27699492  0.96660863  0.25059454    -0.33300
C735        C  0.29345922  0.50148443  0.24138116     0.35900
C736        C  0.32937168  0.52100128  0.24076451    -0.06300
C737        C  0.34795039  0.00540412  0.25066865    -0.33200
C738        C  0.33226096  0.97106091  0.25904030     0.35800
H739        H  0.24941701  0.95177430  0.25055921     0.16200
O740        O  0.27370082  0.51569453  0.23340167    -0.60700
H741        H  0.37606882  0.51949963  0.24918721     0.16200
O742        O  0.35223359  0.95748175  0.26863583    -0.60800
H743        H  0.36054263  0.95302285  0.24639846     0.43200
H744        H  0.27102201  0.52515913  0.25573237     0.43100
C745        C  0.00719763  0.66505425  0.25439884    -0.05900
C746        C  0.49028175  0.63030576  0.24759016    -0.33300
C747        C  0.45555694  0.61216672  0.24017891     0.35900
C748        C  0.43628751  0.62877740  0.23899830    -0.06300
C749        C  0.45269401  0.66384373  0.24492270    -0.33200
C750        C  0.48768817  0.68208279  0.25272333     0.35800
H751        H  0.00413490  0.61624250  0.24901416     0.16200
O752        O  0.44084468  0.57812211  0.23372182    -0.60700
H753        H  0.43828905  0.67704936  0.24393729     0.16200
O754        O  0.50277483  0.71618967  0.25894372    -0.60800
H755        H  0.50824925  0.72690932  0.23553409     0.43200
H756        H  0.44196171  0.57614531  0.20802216     0.43100
C757        C  0.11779390  0.95207384  0.25357084    -0.05900
C758        C  0.13437151  0.97555947  0.28056128    -0.33300
C759        C  0.15072550  0.51024441  0.27394497     0.35900
C760        C  0.15242977  0.52207421  0.23970934    -0.06300
C761        C  0.13625566  0.99854966  0.21246942    -0.33200
C762        C  0.11884879  0.96381426  0.21931766     0.35800
H763        H  0.13359142  0.96692017  0.30709694     0.16200
O764        O  0.16584202  0.53250275  0.30104259    -0.60700
H765        H  0.13831443  0.50783841  0.18585560     0.16200
O766        O  0.10285171  0.94156868  0.19240492    -0.60800
H767        H  0.12036470  0.93688621  0.18251212     0.43200
H768        H  0.14766378  0.53624549  0.31081698     0.43100
C769        C  0.15140896  0.62893285  0.24415779    -0.05900
C770        C  0.11582282  0.61094797  0.24748470    -0.33300
C771        C  0.09750006  0.62759954  0.25425250     0.35900
C772        C  0.11472724  0.66304568  0.25882608    -0.08900
C773        C  0.15051832  0.68105198  0.25656314    -0.33200
C774        C  0.16881857  0.66433665  0.24874190     0.35800
H775        H  0.10185937  0.58374589  0.24394560     0.16200
O776        O  0.06274987  0.60866862  0.25750046    -0.60700
H777        H  0.16433168  0.70823139  0.26025746     0.16200
O778        O  0.20370033  0.68265052  0.24675917    -0.60800
H779        H  0.20871134  0.69300408  0.22317057     0.43200
H780        H  0.05389083  0.60374611  0.23322400     0.43100
C781        C  0.16946730  0.55847279  0.73203030     0.79800
N782        N  0.15625725  0.57746414  0.74436536    -0.78500
C783        C  0.16933937  0.61019942  0.73411549     0.82200
N784        N  0.19570807  0.62371193  0.71109551    -0.78500
C785        C  0.20895160  0.60469540  0.69858998     0.82300
N786        N  0.19542477  0.57200379  0.70879731    -0.80200
C787        C  0.04437178  0.68271056  0.76387802     0.79800
N788        N  0.06327350  0.66812555  0.75521660    -0.78500
C789        C  0.09595569  0.68124455  0.76631108     0.82200
N790        N  0.10985305  0.70947223  0.78658955    -0.78500
C791        C  0.09119127  0.72434720  0.79554901     0.82300
N792        N  0.05844532  0.71076410  0.78430654    -0.80200
C793        C  0.34764535  0.55784896  0.73184538     0.79800
N794        N  0.38048209  0.57735694  0.74220556    -0.78500
C795        C  0.39944211  0.60985750  0.73145643     0.82200
N796        N  0.38526838  0.62313936  0.70985592    -0.78500
C797        C  0.35237095  0.60400434  0.69911456     0.82300
N798        N  0.33368371  0.57127018  0.70998333    -0.80200
C799        C  0.35067228  0.79109256  0.72945295     0.79800
N800        N  0.33530494  0.76279768  0.70913398    -0.78500
C801        C  0.35345668  0.74819314  0.69731976     0.82200
N802        N  0.38696572  0.76201867  0.70587299    -0.78500
C803        C  0.40239778  0.79017514  0.72598321     0.82300
N804        N  0.38424042  0.80465834  0.73736480    -0.80200
C805        C  0.27974285  0.91526185  0.76826004     0.79800
N806        N  0.25103227  0.90111682  0.78799746    -0.78500
C807        C  0.23670871  0.86827360  0.79828124     0.82200
N808        N  0.25120026  0.84949560  0.78861281    -0.78500
C809        C  0.27982088  0.86331736  0.76870008     0.82300
N810        N  0.29403579  0.89628044  0.75895897    -0.80200
C811        C  0.09802065  0.91593078  0.76215420     0.79800
N812        N  0.11021687  0.90199756  0.78530706    -0.78500
C813        C  0.09112034  0.86897150  0.79450382     0.82200
N814        N  0.05916361  0.85007347  0.78114097    -0.78500
C815        C  0.04651788  0.86388258  0.75809372     0.82300
N816        N  0.06628036  0.89680818  0.74872104    -0.80200
Fe817      Fe  0.08755144  0.79510774  0.87098563     1.65800
Fe818      Fe  0.16322803  0.87015539  0.87206534     1.73200
Fe819      Fe  0.16341561  0.79494056  0.87245085     1.54400
O820        O  0.13308467  0.76178617  0.91055434    -0.82100
O821        O  0.19773487  0.87375907  0.83465109    -0.80400
O822        O  0.08342791  0.76106572  0.90896145    -0.84600
O823        O  0.08507494  0.76262633  0.83199752    -0.79500
O824        O  0.19618415  0.82454499  0.91128797    -0.81300
O825        O  0.13401982  0.87365113  0.83266122    -0.84000
C826        C  0.10444052  0.75165415  0.82150169     0.96800
C827        C  0.10271439  0.75056114  0.92086661     1.04200
O828        O  0.13804898  0.82006304  0.87181232    -1.13000
O829        O  0.13236960  0.87360625  0.90944571    -0.75400
O830        O  0.08365952  0.82439739  0.90990895    -0.78900
O831        O  0.13403018  0.76184578  0.83376617    -0.79600
C832        C  0.10254778  0.85436758  0.92088897     0.95700
O833        O  0.08430241  0.82547304  0.83280226    -0.77600
O834        O  0.19562413  0.87323816  0.91167080    -0.82800
C835        C  0.20852934  0.85455521  0.82347809     0.98300
C836        C  0.20633550  0.85403824  0.92308549     1.04200
O837        O  0.19730252  0.82459684  0.83439710    -0.78400
C838        C  0.10396979  0.85500789  0.82128385     1.02500
C839        C  0.34760879  0.55507313  0.51579434     0.79800
N840        N  0.38041498  0.57381601  0.50496541    -0.78500
C841        C  0.39980390  0.60678297  0.51439366     0.82200
N842        N  0.38605174  0.62111406  0.53520846    -0.78500
C843        C  0.35318938  0.60262070  0.54629740     0.82300
N844        N  0.33414302  0.56965747  0.53652372    -0.80200
C845        C  0.27477523  0.91352234  0.98183187     0.79800
N846        N  0.24703211  0.89984214  0.96060807    -0.78500
C847        C  0.23320832  0.86721008  0.94971533     0.82200
N848        N  0.24750627  0.84836113  0.95980422    -0.78500
C849        C  0.27537474  0.86187814  0.98086308     0.82300
N850        N  0.28877075  0.89440882  0.99160593    -0.80200
C851        C  0.39844883  0.78852944  0.51225381     0.79800
N852        N  0.38501929  0.76129236  0.53392612    -0.78500
C853        C  0.35198109  0.74703024  0.54453286     0.82200
N854        N  0.33244244  0.76041814  0.53369552    -0.78500
C855        C  0.34569365  0.78766121  0.51212643     0.82300
N856        N  0.37858022  0.80150026  0.50181828    -0.80200
C857        C  0.04084914  0.86353934  0.97624858     0.79800
N858        N  0.05551739  0.84943294  0.95663601    -0.78500
C859        C  0.08851614  0.86822622  0.94639824     0.82200
N860        N  0.10693462  0.90128081  0.95608247    -0.78500
C861        C  0.09247623  0.91562547  0.97575646     0.82300
N862        N  0.05931831  0.89665199  0.98544457    -0.80200
C863        C  0.16788512  0.55797530  0.51086205     0.79800
N864        N  0.15489316  0.57755258  0.49973068    -0.78500
C865        C  0.16827120  0.61016860  0.51019506     0.82200
N866        N  0.19517214  0.62327148  0.53260973    -0.78500
C867        C  0.20868877  0.60408367  0.54400250     0.82300
N868        N  0.19484162  0.57135639  0.53321019    -0.80200
C869        C  0.04096362  0.67883752  0.97470907     0.79800
N870        N  0.06011874  0.66462132  0.98384791    -0.78500
C871        C  0.09351017  0.67945535  0.97494409     0.82200
N872        N  0.10769344  0.70838621  0.95594310    -0.78500
C873        C  0.08864877  0.72254547  0.94601181     0.82300
N874        N  0.05527037  0.70771656  0.95546760    -0.80200
Fe875      Fe  0.27927183  0.60160745  0.62157226     1.65800
Fe876      Fe  0.27902837  0.67698294  0.62140635     1.73200
Fe877      Fe  0.35482029  0.67655332  0.62147338     1.54400
O878        O  0.35807929  0.64688826  0.66055218    -0.82100
O879        O  0.30897871  0.70990348  0.58281903    -0.80400
O880        O  0.30891037  0.59813600  0.66070702    -0.84600
O881        O  0.30958569  0.59781116  0.58355767    -0.79500
O882        O  0.35795150  0.70993466  0.65961898    -0.81300
O883        O  0.24568964  0.64699681  0.58272157    -0.84000
C884        C  0.33955531  0.61670044  0.57218206     0.96800
C885        C  0.33878495  0.61728361  0.67225206     1.04200
O886        O  0.30437735  0.65172026  0.62145313    -1.13000
O887        O  0.24577729  0.64764939  0.66007641    -0.75400
O888        O  0.24573736  0.59867372  0.65968892    -0.78900
O889        O  0.35870641  0.64654545  0.58329311    -0.79600
C890        C  0.23528594  0.61796846  0.67144051     0.95700
O891        O  0.24621974  0.59827266  0.58247977    -0.77600
O892        O  0.30886721  0.71039577  0.66011534    -0.82800
C893        C  0.33878334  0.72021823  0.57113992     0.98300
C894        C  0.33890513  0.72081783  0.67127143     1.04200
O895        O  0.35813709  0.70951050  0.58246711    -0.78400
C896        C  0.23542254  0.61739308  0.57100243     1.02500
C897        C  0.11323851  0.66250575  0.98323343    -0.05900
C898        C  0.14545275  0.68048977  0.99899463    -0.33300
C899        C  0.16477214  0.66435936  0.50685748     0.35900
C900        C  0.15094623  0.62945412  0.49982421    -0.06300
C901        C  0.11828845  0.61189275  0.98386538    -0.33200
C902        C  0.09980240  0.62803687  0.97554390     0.35800
H903        H  0.15611365  0.70713436  0.00489720     0.16200
O904        O  0.19625742  0.68286083  0.52206505    -0.60700
H905        H  0.10709399  0.58531133  0.97744149     0.16200
O906        O  0.06904897  0.61013128  0.95872371    -0.60800
H907        H  0.05231188  0.59746570  0.97737918     0.43200
H908        H  0.19168092  0.68375424  0.54725797     0.43100
C909        C  0.11192366  0.95211213  0.98466952    -0.05900
C910        C  0.14739111  0.96808542  0.49179734    -0.33300
C911        C  0.16583475  0.00256991  0.50076846     0.35900
C912        C  0.14981688  0.52148039  0.50165506    -0.06300
C913        C  0.11406524  0.50550223  0.99548382    -0.33200
C914        C  0.09544458  0.97144516  0.98684643     0.35800
H915        H  0.16049623  0.95359435  0.49097604     0.16200
O916        O  0.20069143  0.51674759  0.50617200    -0.60700
H917        H  0.10056751  0.51959023  0.99693642     0.16200
O918        O  0.06123050  0.95730388  0.98023273    -0.60800
H919        H  0.05942883  0.95935724  0.95462720     0.43200
H920        H  0.20186445  0.01184952  0.53211088     0.43100
C921        C  0.00431447  0.84385156  0.98496514    -0.05900
C922        C  0.49132665  0.81088277  0.00042088    -0.33300
C923        C  0.45658329  0.79229168  0.00897319     0.35900
C924        C  0.43516398  0.80652332  0.50257666    -0.06300
C925        C  0.44937719  0.83932073  0.48848908    -0.33200
C926        C  0.48397692  0.85812411  0.48043991     0.35800
H927        H  0.50748915  0.79995385  0.00523458     0.16200
O928        O  0.44407904  0.76075941  0.02338788    -0.60700
H929        H  0.43379405  0.85093292  0.48400338     0.16200
O930        O  0.99584936  0.88971368  0.46601784    -0.60800
H931        H  0.99710557  0.90449590  0.48565761     0.43200
H932        H  0.43731201  0.74502036  0.00324588     0.43100
C933        C  0.32664066  0.80540839  0.50368381    -0.05900
C934        C  0.34466349  0.84085705  0.50229899    -0.33300
C935        C  0.32806634  0.85916414  0.49545728     0.35900
C936        C  0.29305485  0.84263238  0.98927136    -0.06300
C937        C  0.27480093  0.80704190  0.99062693    -0.33200
C938        C  0.29143914  0.78863648  0.99818292     0.35800
H939        H  0.37190499  0.85467378  0.50704284     0.16200
O940        O  0.34717664  0.89375622  0.49355380    -0.60700
H941        H  0.24754553  0.79345339  0.98602592     0.16200
O942        O  0.27291088  0.75398384  0.99922861    -0.60800
H943        H  0.27460139  0.74645600  0.97537665     0.43200
H944        H  0.35087331  0.90168986  0.51813805     0.43100
C945        C  0.43628358  0.62596057  0.50412403    -0.05900
C946        C  0.45238429  0.66103031  0.49811110    -0.33300
C947        C  0.48693780  0.67934618  0.48850443     0.35900
C948        C  0.00420922  0.66110752  0.98333277    -0.06300
C949        C  0.48874046  0.62715872  0.98860645    -0.33200
C950        C  0.45428171  0.60887411  0.99733347     0.35800
H951        H  0.43809499  0.67425442  0.50061059     0.16200
O952        O  0.00235333  0.71260826  0.48877120    -0.60700
H953        H  0.50232808  0.61341014  0.98453707     0.16200
O954        O  0.43959941  0.57456393  0.00133952    -0.60800
H955        H  0.43590277  0.56540144  0.97723404     0.43200
H956        H  0.01141750  0.72082832  0.51255091     0.43100
C957        C  0.32770011  0.51841333  0.50744202    -0.05900
C958        C  0.29187197  0.50182745  0.50535842    -0.33300
C959        C  0.27466942  0.96826797  0.49370099     0.35900
C960        C  0.29265798  0.95000875  0.99058688    -0.06300
C961        C  0.32814618  0.96664611  0.99488243    -0.33200
C962        C  0.34362878  0.49860057  0.00765038     0.35800
H963        H  0.27858947  0.51589911  0.50922813     0.16200
O964        O  0.24017295  0.95324458  0.48830628    -0.60700
H965        H  0.34196078  0.95299499  0.99199352     0.16200
O966        O  0.37775379  0.51281973  0.01482226    -0.60800
H967        H  0.38819783  0.51041283  0.99302238     0.43200
H968        H  0.23755155  0.95882596  0.46386236     0.43100
C969        C  0.33224664  0.80907264  0.74031551    -0.05900
C970        C  0.29683289  0.79121109  0.74595321    -0.33300
C971        C  0.27932322  0.80821486  0.75596310     0.35900
C972        C  0.29710461  0.84379214  0.75959038    -0.06300
C973        C  0.33244690  0.86144147  0.75407562    -0.33200
C974        C  0.34995099  0.84457288  0.74466527     0.35800
H975        H  0.28269050  0.76397286  0.74280570     0.16200
O976        O  0.24470783  0.78995009  0.76068449    -0.60700
H977        H  0.34682643  0.88868403  0.75707677     0.16200
O978        O  0.38441891  0.86337384  0.73910446    -0.60800
H979        H  0.38691947  0.86880928  0.71382023     0.43200
H980        H  0.24154422  0.78134380  0.78497762     0.43100
C981        C  0.01035746  0.84437694  0.74627669    -0.05900
C982        C  0.49121847  0.80909235  0.75200681    -0.33300
C983        C  0.45615686  0.79081035  0.74475754     0.35900
C984        C  0.43951932  0.80767674  0.73167891    -0.06300
C985        C  0.45856932  0.84226293  0.72417829    -0.33200
C986        C  0.49364468  0.86038560  0.73034995     0.35800
H987        H  0.50330376  0.79580760  0.76318492     0.16200
O988        O  0.43823645  0.75676545  0.75158721    -0.60700
H989        H  0.44613163  0.85538681  0.71338537     0.16200
O990        O  0.01096762  0.89470204  0.72389984    -0.60800
H991        H  0.51787483  0.89548162  0.69777820     0.43200
H992        H  0.43038719  0.75492223  0.77607530     0.43100
C993        C  0.29667242  0.95161808  0.75894550    -0.05900
C994        C  0.27721198  0.96701061  0.75051938    -0.33300
C995        C  0.29327108  0.50177677  0.74169014     0.35900
C996        C  0.32918176  0.52140673  0.74150185    -0.06300
C997        C  0.34817640  0.00573148  0.75041614    -0.33200
C998        C  0.33246731  0.97139503  0.75881056     0.35800
H999        H  0.24963265  0.95220308  0.75054766     0.16200
O1000       O  0.27350469  0.51589635  0.73337021    -0.60700
H1001       H  0.37588083  0.52009844  0.75072409     0.16200
O1002       O  0.35243025  0.95778433  0.76833391    -0.60800
H1003       H  0.36073861  0.95337216  0.74607075     0.43200
H1004       H  0.27067887  0.52543238  0.75558282     0.43100
C1005       C  0.00766994  0.66548774  0.75461827    -0.05900
C1006       C  0.48992358  0.63017839  0.74974258    -0.33300
C1007       C  0.45516411  0.61207927  0.74250076     0.35900
C1008       C  0.43621459  0.62897845  0.73991482    -0.06300
C1009       C  0.45297227  0.66424445  0.74453144    -0.33200
C1010       C  0.48799050  0.68243054  0.75221012     0.35800
H1011       H  0.00429139  0.61647043  0.75037509     0.16200
O1012       O  0.44013014  0.57778391  0.73756605    -0.60700
H1013       H  0.43884106  0.67767665  0.74254889     0.16200
O1014       O  0.50344912  0.71675803  0.75709851    -0.60800
H1015       H  0.50908504  0.72663991  0.73331450     0.43200
H1016       H  0.44164496  0.57477440  0.71210257     0.43100
C1017       C  0.11775484  0.95232456  0.75404147    -0.05900
C1018       C  0.13412989  0.97575551  0.78112585    -0.33300
C1019       C  0.15056629  0.51050519  0.77431512     0.35900
C1020       C  0.15278535  0.52220323  0.73993347    -0.06300
C1021       C  0.13668264  0.99887381  0.71296851    -0.33200
C1022       C  0.11915565  0.96412782  0.71975935     0.35800
H1023       H  0.13311475  0.96705750  0.80767809     0.16200
O1024       O  0.16512202  0.53286868  0.80143583    -0.60700
H1025       H  0.13951055  0.50774471  0.68597957     0.16200
O1026       O  0.10340360  0.94193401  0.69274931    -0.60800
H1027       H  0.12068345  0.93647306  0.68375545     0.43200
H1028       H  0.14670161  0.53652287  0.81066529     0.43100
C1029       C  0.15163992  0.62900658  0.74394734    -0.05900
C1030       C  0.11602561  0.61110633  0.74690525    -0.33300
C1031       C  0.09775714  0.62781035  0.75369225     0.35900
C1032       C  0.11507014  0.66321483  0.75867959    -0.08900
C1033       C  0.15088292  0.68111973  0.75672847    -0.33200
C1034       C  0.16912878  0.66436109  0.74887040     0.35800
H1035       H  0.10201671  0.58394205  0.74307040     0.16200
O1036       O  0.06296692  0.60895442  0.75653966    -0.60700
H1037       H  0.16476569  0.70825950  0.76071159     0.16200
O1038       O  0.20403080  0.68257074  0.74719822    -0.60800
H1039       H  0.20927310  0.69304352  0.72366552     0.43200
H1040       H  0.05435137  0.60451088  0.73216346     0.43100
C1041       C  0.66833555  0.05824652  0.23121703     0.79800
N1042       N  0.65477336  0.07703845  0.24323923    -0.78500
C1043       C  0.66792817  0.10984166  0.23319023     0.82200
N1044       N  0.69473696  0.12363342  0.21071960    -0.78500
C1045       C  0.70835290  0.10483617  0.19856948     0.82300
N1046       N  0.69474984  0.07207105  0.20854191    -0.80200
C1047       C  0.54286119  0.18215702  0.26362093     0.79800
N1048       N  0.56173601  0.16760600  0.25476240    -0.78500
C1049       C  0.59448138  0.18077110  0.26559145     0.82200
N1050       N  0.60850104  0.20905649  0.28578055    -0.78500
C1051       C  0.58988271  0.22393190  0.29492169     0.82300
N1052       N  0.55703363  0.21026908  0.28397138    -0.80200
C1053       C  0.84801807  0.05795674  0.23155236     0.79800
N1054       N  0.88091215  0.07727914  0.24181082    -0.78500
C1055       C  0.89987401  0.10989294  0.23140275     0.82200
N1056       N  0.88566902  0.12345781  0.21020852    -0.78500
C1057       C  0.85271698  0.10449511  0.19957740     0.82300
N1058       N  0.83402115  0.07166741  0.21014017    -0.80200
C1059       C  0.85033504  0.29187305  0.22886015     0.79800
N1060       N  0.83509239  0.26342881  0.20878637    -0.78500
C1061       C  0.85335521  0.24885635  0.19727559     0.82200
N1062       N  0.88685022  0.26284357  0.20589445    -0.78500
C1063       C  0.90217209  0.29115752  0.22577897     0.82300
N1064       N  0.88391007  0.30563630  0.23685980    -0.80200
C1065       C  0.77902264  0.41564716  0.26758542     0.79800
N1066       N  0.75032851  0.40142588  0.28735317    -0.78500
C1067       C  0.73586266  0.36845572  0.29723660     0.82200
N1068       N  0.75023390  0.34966621  0.28722845    -0.78500
C1069       C  0.77883262  0.36357299  0.26730558     0.82300
N1070       N  0.79312433  0.39661030  0.25788311    -0.80200
C1071       C  0.59772350  0.41556635  0.26132559     0.79800
N1072       N  0.60974255  0.40167626  0.28473724    -0.78500
C1073       C  0.59056874  0.36867524  0.29400599     0.82200
N1074       N  0.55870397  0.34976837  0.28045742    -0.78500
C1075       C  0.54621945  0.36352803  0.25716153     0.82300
N1076       N  0.56605809  0.39643203  0.24770162    -0.80200
Fe1077     Fe  0.58688384  0.29481239  0.37073919     1.65800
Fe1078     Fe  0.66260203  0.36987153  0.37164378     1.73200
Fe1079     Fe  0.66284425  0.29474904  0.37109026     1.54400
O1080       O  0.63292764  0.26160351  0.40926792    -0.82100
O1081       O  0.69724760  0.37379847  0.33426623    -0.80400
O1082       O  0.58323052  0.26087443  0.40868361    -0.84600
O1083       O  0.58405549  0.26221632  0.33167819    -0.79500
O1084       O  0.69590479  0.32428835  0.40976982    -0.81300
O1085       O  0.63339828  0.37333618  0.33222559    -0.84000
C1086       C  0.60336644  0.25133126  0.32077765     0.96800
C1087       C  0.60275022  0.25044127  0.42012742     1.04200
O1088       O  0.63741135  0.31979648  0.37113339    -1.13000
O1089       O  0.63171323  0.37322282  0.40896106    -0.75400
O1090       O  0.58302240  0.32405917  0.40982488    -0.78900
O1091       O  0.63314400  0.26168591  0.33256934    -0.79600
C1092       C  0.60196714  0.35408708  0.42060543     0.95700
O1093       O  0.58353466  0.32524615  0.33261032    -0.77600
O1094       O  0.69484733  0.37271452  0.41135839    -0.82800
C1095       C  0.70775545  0.35457755  0.32248071     0.98300
C1096       C  0.70575199  0.35349321  0.42223482     1.04200
O1097       O  0.69631615  0.32443199  0.33284636    -0.78400
C1098       C  0.60329579  0.35472611  0.32094066     1.02500
C1099       C  0.84588964  0.05451836  0.01701550     0.79800
N1100       N  0.87822127  0.07284953  0.00494709    -0.78500
C1101       C  0.89799108  0.10603832  0.01327582     0.82200
N1102       N  0.88499634  0.12086143  0.03452519    -0.78500
C1103       C  0.85249438  0.10266258  0.04677571     0.82300
N1104       N  0.83308318  0.06952748  0.03788731    -0.80200
C1105       C  0.77248573  0.41135361  0.48373032     0.79800
N1106       N  0.74545506  0.39826328  0.46150886    -0.78500
C1107       C  0.73226487  0.36612797  0.44925852     0.82200
N1108       N  0.74653841  0.34715144  0.45888577    -0.78500
C1109       C  0.77373889  0.36003890  0.48080498     0.82300
N1110       N  0.78643337  0.39204299  0.49301510    -0.80200
C1111       C  0.89745286  0.28780417  0.01140661     0.79800
N1112       N  0.88427941  0.26085741  0.03344857    -0.78500
C1113       C  0.85131363  0.24657443  0.04423836     0.82200
N1114       N  0.83155624  0.25963654  0.03320723    -0.78500
C1115       C  0.84453594  0.28659260  0.01127809     0.82300
N1116       N  0.87739224  0.30050593  0.00079658    -0.80200
C1117       C  0.54110949  0.36454887  0.47632748     0.79800
N1118       N  0.55533892  0.34990695  0.45677830    -0.78500
C1119       C  0.58825394  0.36832349  0.44606765     0.82200
N1120       N  0.60701478  0.40149501  0.45519015    -0.78500
C1121       C  0.59300846  0.41635865  0.47467676     0.82300
N1122       N  0.55997485  0.39781776  0.48488063    -0.80200
C1123       C  0.66786255  0.05777164  0.01214758     0.79800
N1124       N  0.65497264  0.07734040  0.00069654    -0.78500
C1125       C  0.66861778  0.11010516  0.01073793     0.82200
N1126       N  0.69554456  0.12328426  0.03308514    -0.78500
C1127       C  0.70886860  0.10405930  0.04481044     0.82300
N1128       N  0.69486248  0.07123640  0.03440153    -0.80200
C1129       C  0.54270534  0.17999682  0.47651575     0.79800
N1130       N  0.56237297  0.16630256  0.48555629    -0.78500
C1131       C  0.59535588  0.18075035  0.47532263     0.82200
N1132       N  0.60881508  0.20900469  0.45532390    -0.78500
C1133       C  0.58936050  0.22277538  0.44562345     0.82300
N1134       N  0.55631089  0.20815158  0.45615241    -0.80200
Fe1135     Fe  0.77939945  0.10206408  0.12251462     1.65800
Fe1136     Fe  0.77896368  0.17725406  0.12182795     1.73200
Fe1137     Fe  0.85490134  0.17701602  0.12188544     1.54400
O1138       O  0.85841180  0.14741921  0.16097072    -0.82100
O1139       O  0.80868652  0.20986511  0.08300467    -0.80400
O1140       O  0.80904109  0.09887149  0.16174357    -0.84600
O1141       O  0.80972788  0.09827128  0.08471356    -0.79500
O1142       O  0.85798010  0.21041705  0.15998138    -0.81300
O1143       O  0.74567187  0.14707802  0.08335214    -0.84000
C1144       C  0.83949176  0.11710817  0.07286292     0.96800
C1145       C  0.83906715  0.11792267  0.17293670     1.04200
O1146       O  0.80443170  0.15212513  0.12209454    -1.13000
O1147       O  0.74570590  0.14807468  0.16058379    -0.75400
O1148       O  0.74572534  0.09913201  0.16036079    -0.78900
O1149       O  0.85876134  0.14705229  0.08361419    -0.79600
C1150       C  0.73511178  0.11835451  0.17189085     0.95700
O1151       O  0.74641926  0.09846966  0.08332400    -0.77600
O1152       O  0.80886722  0.21087078  0.16025757    -0.82800
C1153       C  0.83844973  0.22018215  0.07125168     0.98300
C1154       C  0.83889790  0.22134155  0.17144387     1.04200
O1155       O  0.85799725  0.20979944  0.08279102    -0.78400
C1156       C  0.73554750  0.11748149  0.07175224     1.02500
C1157       C  0.61516069  0.16382750  0.48312897    -0.05900
C1158       C  0.64713343  0.18152569  0.49938005    -0.33300
C1159       C  0.66587459  0.16462078  0.00671879     0.35900
C1160       C  0.65173903  0.12963965  0.99985653    -0.06300
C1161       C  0.62007731  0.11315192  0.48309295    -0.33200
C1162       C  0.60182237  0.12952182  0.47475073     0.35800
H1163       H  0.65771028  0.20806395  0.50575675     0.16200
O1164       O  0.69720554  0.18288518  0.02230298    -0.60700
H1165       H  0.60893358  0.08667346  0.47622903     0.16200
O1166       O  0.57132725  0.11199120  0.45738628    -0.60800
H1167       H  0.55426741  0.09908785  0.47570473     0.43200
H1168       H  0.69235589  0.18399934  0.04737597     0.43100
C1169       C  0.61276961  0.45292010  0.48283690    -0.05900
C1170       C  0.64742560  0.46814437  0.99184990    -0.33300
C1171       C  0.66592371  0.50257639  0.00098606     0.35900
C1172       C  0.64983241  0.02128671  0.00323509    -0.06300
C1173       C  0.61473542  0.00602504  0.49526980    -0.33200
C1174       C  0.59717790  0.47306262  0.48144365     0.35800
H1175       H  0.66040998  0.45353336  0.99120333     0.16200
O1176       O  0.70117422  0.01724881  0.00591685    -0.60700
H1177       H  0.60128480  0.02017494  0.49636637     0.16200
O1178       O  0.56386489  0.45968708  0.47113774    -0.60800
H1179       H  0.56461669  0.46129939  0.44528823     0.43200
H1180       H  0.70162567  0.51141636  0.03261447     0.43100
C1181       C  0.50466658  0.34517028  0.48595492    -0.05900
C1182       C  0.99053728  0.31040770  0.49837776    -0.33300
C1183       C  0.95576328  0.29152479  0.50672856     0.35900
C1184       C  0.93416151  0.30587690  0.00173262    -0.06300
C1185       C  0.94828682  0.33853664  0.98730629    -0.33200
C1186       C  0.98295442  0.35745140  0.97951147     0.35800
H1187       H  0.00664014  0.29926918  0.50230559     0.16200
O1188       O  0.94313708  0.25945074  0.51976082    -0.60700
H1189       H  0.93259227  0.34995735  0.98241383     0.16200
O1190       O  0.49638470  0.39112314  0.96969955    -0.60800
H1191       H  0.49832641  0.40516555  0.99031610     0.43200
H1192       H  0.93634430  0.24449202  0.49896970     0.43100
C1193       C  0.82541534  0.30430011  0.00314731    -0.05900
C1194       C  0.84325327  0.33975825  0.00291018    -0.33300
C1195       C  0.82656058  0.35806601  0.99666096     0.35900
C1196       C  0.79153465  0.34080342  0.48860376    -0.06300
C1197       C  0.77342440  0.30519184  0.48945227    -0.33200
C1198       C  0.79021623  0.28684301  0.49658833     0.35800
H1199       H  0.87040709  0.35355943  0.00816442     0.16200
O1200       O  0.84548205  0.39271411  0.99599896    -0.60700
H1201       H  0.74616610  0.29156238  0.48486541     0.16200
O1202       O  0.77184315  0.25217421  0.49729303    -0.60800
H1203       H  0.77357827  0.24490492  0.47332928     0.43200
H1204       H  0.84896336  0.39978739  0.02086314     0.43100
C1205       C  0.93414186  0.12493782  0.00139314    -0.05900
C1206       C  0.95239391  0.16056122  0.00223254    -0.33300
C1207       C  0.98692252  0.17863104  0.99262925     0.35900
C1208       C  0.50620049  0.16257765  0.48691543    -0.06300
C1209       C  0.98522402  0.12585043  0.48036241    -0.33200
C1210       C  0.95071398  0.10786338  0.48905067     0.35800
H1211       H  0.93995481  0.17451077  0.01048628     0.16200
O1212       O  0.49846858  0.20898276  0.96734679    -0.60700
H1213       H  0.99766208  0.11193849  0.47191559     0.16200
O1214       O  0.93428755  0.07326715  0.48690768    -0.60800
H1215       H  0.92680293  0.06792851  0.46222363     0.43200
H1216       H  0.50587894  0.22499070  0.98729221     0.43100
C1217       C  0.82623218  0.01782497  0.01023227    -0.05900
C1218       C  0.79165822  0.00228873  0.00088744    -0.33300
C1219       C  0.77345655  0.46770374  0.99214263     0.35900
C1220       C  0.78955055  0.44751413  0.49448786    -0.06300
C1221       C  0.82307032  0.46258937  0.50743679    -0.33200
C1222       C  0.84171525  0.99818051  0.51333483     0.35800
H1223       H  0.77905608  0.01721209  0.99897113     0.16200
O1224       O  0.73993362  0.45359005  0.98230157    -0.60700
H1225       H  0.83564424  0.44783546  0.51107782     0.16200
O1226       O  0.87474358  0.01215500  0.52491970    -0.60800
H1227       H  0.88784191  0.01075801  0.50485345     0.43200
H1228       H  0.74046564  0.45932184  0.95723007     0.43100
C1229       C  0.83171710  0.30972149  0.23937095    -0.05900
C1230       C  0.79633876  0.29167585  0.24521113    -0.33300
C1231       C  0.77864710  0.30855683  0.25497191     0.35900
C1232       C  0.79621730  0.34417149  0.25814752    -0.06300
C1233       C  0.83151721  0.36199587  0.25234486    -0.33200
C1234       C  0.84919065  0.34525903  0.24315857     0.35800
H1235       H  0.78237917  0.26439386  0.24245234     0.16200
O1236       O  0.74407752  0.29011533  0.25996635    -0.60700
H1237       H  0.84575623  0.38927337  0.25499286     0.16200
O1238       O  0.88359504  0.36420602  0.23728723    -0.60800
H1239       H  0.88585788  0.36929686  0.21192716     0.43200
H1240       H  0.74114900  0.28179248  0.28435890     0.43100
C1241       C  0.51008639  0.34400362  0.24529158    -0.05900
C1242       C  0.99080195  0.30951227  0.25174544    -0.33300
C1243       C  0.95574807  0.29146307  0.24448926     0.35900
C1244       C  0.93924170  0.30859516  0.23177892    -0.06300
C1245       C  0.95839443  0.34328167  0.22480717    -0.33200
C1246       C  0.99346978  0.36120037  0.23102878     0.35800
H1247       H  0.00279478  0.29599465  0.26256375     0.16200
O1248       O  0.93770845  0.25734894  0.25092434    -0.60700
H1249       H  0.94605798  0.35663026  0.21434207     0.16200
O1250       O  0.51042278  0.39439188  0.22359397    -0.60800
H1251       H  0.01770191  0.39679239  0.19895745     0.43200
H1252       H  0.92923568  0.25524617  0.27518700     0.43100
C1253       C  0.79625791  0.45214257  0.25878070    -0.05900
C1254       C  0.77709501  0.46816278  0.25179609    -0.33300
C1255       C  0.79356335  0.00202435  0.24147789     0.35900
C1256       C  0.82947814  0.02142797  0.24079808    -0.06300
C1257       C  0.84810929  0.50585468  0.24964153    -0.33200
C1258       C  0.83209242  0.47143033  0.25766013     0.35800
H1259       H  0.74950799  0.45377741  0.25262652     0.16200
O1260       O  0.77389550  0.01643539  0.23394414    -0.60700
H1261       H  0.87609083  0.01965467  0.24870456     0.16200
O1262       O  0.85186033  0.45723344  0.26576630    -0.60800
H1263       H  0.85945298  0.45296457  0.24297896     0.43200
H1264       H  0.77147949  0.02586474  0.25641811     0.43100
C1265       C  0.50610777  0.16475768  0.25469599    -0.05900
C1266       C  0.99047023  0.13011850  0.24890734    -0.33300
C1267       C  0.95566996  0.11203783  0.24179712     0.35900
C1268       C  0.93665426  0.12890728  0.23981301    -0.06300
C1269       C  0.95333801  0.16408368  0.24501445    -0.33200
C1270       C  0.98835950  0.18222989  0.25262146     0.35800
H1271       H  0.50295314  0.11580580  0.25092378     0.16200
O1272       O  0.94065644  0.07780246  0.23642241    -0.60700
H1273       H  0.93913709  0.17747692  0.24356293     0.16200
O1274       O  0.00369163  0.21645493  0.25818988    -0.60800
H1275       H  0.00929976  0.22676816  0.23459357     0.43200
H1276       H  0.94189579  0.07507305  0.21086130     0.43100
C1277       C  0.61748817  0.45197582  0.25328335    -0.05900
C1278       C  0.63270762  0.47541808  0.28058953    -0.33300
C1279       C  0.64878977  0.01029152  0.27360176     0.35900
C1280       C  0.65184331  0.02196787  0.23910368    -0.06300
C1281       C  0.63748172  0.49854532  0.21208631    -0.33200
C1282       C  0.62003925  0.46376860  0.21882635     0.35800
H1283       H  0.63084030  0.46670929  0.30726550     0.16200
O1284       O  0.66245631  0.03268222  0.30083351    -0.60700
H1285       H  0.64039367  0.00744176  0.18491989     0.16200
O1286       O  0.60550095  0.44152368  0.19160662    -0.60800
H1287       H  0.62363457  0.43714159  0.18297178     0.43200
H1288       H  0.64366328  0.03611763  0.30931367     0.43100
C1289       C  0.65013160  0.12858846  0.24286945    -0.05900
C1290       C  0.61450638  0.11067711  0.24568111    -0.33300
C1291       C  0.59622788  0.12735755  0.25255250     0.35900
C1292       C  0.61354958  0.16274272  0.25775898    -0.08900
C1293       C  0.64935318  0.18065009  0.25584786    -0.33200
C1294       C  0.66760395  0.16392737  0.24791802     0.35800
H1295       H  0.60051078  0.08352906  0.24172414     0.16200
O1296       O  0.56142974  0.10848809  0.25529527    -0.60700
H1297       H  0.66323770  0.20777205  0.25995695     0.16200
O1298       O  0.70250711  0.18216175  0.24632387    -0.60800
H1299       H  0.70778863  0.19267618  0.22281064     0.43200
H1300       H  0.55287270  0.10424280  0.23089629     0.43100
C1301       C  0.66827346  0.05845335  0.73153669     0.79800
N1302       N  0.65473874  0.07727395  0.74354881    -0.78500
C1303       C  0.66795358  0.11009051  0.73352101     0.82200
N1304       N  0.69478521  0.12387022  0.71108191    -0.78500
C1305       C  0.70836537  0.10504784  0.69892226     0.82300
N1306       N  0.69470526  0.07226219  0.70887128    -0.80200
C1307       C  0.54311375  0.18270215  0.76381853     0.79800
N1308       N  0.56194316  0.16810811  0.75494915    -0.78500
C1309       C  0.59471946  0.18127870  0.76566723     0.82200
N1310       N  0.60882173  0.20962839  0.78575652    -0.78500
C1311       C  0.59026322  0.22456758  0.79489061     0.82300
N1312       N  0.55737178  0.21089053  0.78405592    -0.80200
C1313       C  0.84778982  0.05805233  0.73237000     0.79800
N1314       N  0.88062199  0.07746414  0.74276037    -0.78500
C1315       C  0.89956840  0.11006008  0.73230532     0.82200
N1316       N  0.88539822  0.12352913  0.71093071    -0.78500
C1317       C  0.85249144  0.10449012  0.70016907     0.82300
N1318       N  0.83381151  0.07166396  0.71077930    -0.80200
C1319       C  0.85073424  0.29230290  0.72905858     0.79800
N1320       N  0.83546470  0.26382889  0.70902330    -0.78500
C1321       C  0.85369336  0.24918943  0.69757544     0.82200
N1322       N  0.88718716  0.26315035  0.70623105    -0.78500
C1323       C  0.90253033  0.29149708  0.72608539     0.82300
N1324       N  0.88429157  0.30602419  0.73709340    -0.80200
C1325       C  0.77969638  0.41633101  0.76802895     0.79800
N1326       N  0.75093801  0.40208681  0.78768643    -0.78500
C1327       C  0.73644957  0.36911431  0.79752663     0.82200
N1328       N  0.75085345  0.35033845  0.78757274    -0.78500
C1329       C  0.77952481  0.36426531  0.76775796     0.82300
N1330       N  0.79385498  0.39732452  0.75838845    -0.80200
C1331       C  0.59803059  0.41597538  0.76153050     0.79800
N1332       N  0.61008094  0.40212399  0.78494551    -0.78500
C1333       C  0.59090190  0.36915768  0.79431026     0.82200
N1334       N  0.55900151  0.35023663  0.78083697    -0.78500
C1335       C  0.54648960  0.36395258  0.75751222     0.82300
N1336       N  0.56633722  0.39683190  0.74797853    -0.80200
Fe1337     Fe  0.58738179  0.29525980  0.87091802     1.65800
Fe1338     Fe  0.66299722  0.37037748  0.87183783     1.73200
Fe1339     Fe  0.66335427  0.29528694  0.87107635     1.54400
O1340       O  0.63360006  0.26205309  0.90922196    -0.82100
O1341       O  0.69783073  0.37443078  0.83459960    -0.80400
O1342       O  0.58378667  0.26106469  0.90853326    -0.84600
O1343       O  0.58456807  0.26293928  0.83159411    -0.79500
O1344       O  0.69641112  0.32483979  0.90976006    -0.81300
O1345       O  0.63389523  0.37382081  0.83229836    -0.84000
C1346       C  0.60382179  0.25197732  0.82072653     0.96800
C1347       C  0.60335304  0.25066454  0.91992517     1.04200
O1348       O  0.63788130  0.32029385  0.87124927    -1.13000
O1349       O  0.63198168  0.37370238  0.90907149    -0.75400
O1350       O  0.58360863  0.32426021  0.91029197    -0.78900
O1351       O  0.63356802  0.26222153  0.83257413    -0.79600
C1352       C  0.60238085  0.35436391  0.92094729     0.95700
O1353       O  0.58391015  0.32587130  0.83308385    -0.77600
O1354       O  0.69503573  0.37310564  0.91168135    -0.82800
C1355       C  0.70827121  0.35520113  0.82267253     0.98300
C1356       C  0.70602109  0.35391860  0.92245151     1.04200
O1357       O  0.69671423  0.32498935  0.83283171    -0.78400
C1358       C  0.60369879  0.35526297  0.82122779     1.02500
C1359       C  0.84562785  0.05471019  0.51688516     0.79800
N1360       N  0.87789916  0.07306330  0.50468700    -0.78500
C1361       C  0.89772468  0.10621583  0.51310227     0.82200
N1362       N  0.88484373  0.12098353  0.53458713    -0.78500
C1363       C  0.85239415  0.10275810  0.54698032     0.82300
N1364       N  0.83292538  0.06965120  0.53799610    -0.80200
C1365       C  0.77218754  0.41155023  0.98447485     0.79800
N1366       N  0.74537219  0.39854295  0.96200147    -0.78500
C1367       C  0.73230165  0.36645149  0.94968787     0.82200
N1368       N  0.74648395  0.34744499  0.95950666    -0.78500
C1369       C  0.77345918  0.36024814  0.98172421     0.82300
N1370       N  0.78603324  0.39221537  0.99398833    -0.80200
C1371       C  0.89767168  0.28757815  0.51138433     0.79800
N1372       N  0.88448972  0.26078334  0.53363325    -0.78500
C1373       C  0.85151823  0.24660242  0.54442062     0.82200
N1374       N  0.83178931  0.25963651  0.53317762    -0.78500
C1375       C  0.84478413  0.28643957  0.51102518     0.82300
N1376       N  0.87762460  0.30021139  0.50054261    -0.80200
C1377       C  0.54112203  0.36392789  0.97677369     0.79800
N1378       N  0.55559834  0.34964859  0.95708858    -0.78500
C1379       C  0.58853348  0.36832854  0.94656988     0.82200
N1380       N  0.60708602  0.40143619  0.95603879    -0.78500
C1381       C  0.59283676  0.41594884  0.97574862     0.82300
N1382       N  0.55975804  0.39710586  0.98573403    -0.80200
C1383       C  0.66774379  0.05826279  0.51225983     0.79800
N1384       N  0.65489236  0.07793795  0.50105688    -0.78500
C1385       C  0.66846705  0.11060120  0.51141312     0.82200
N1386       N  0.69536973  0.12361711  0.53379154    -0.78500
C1387       C  0.70871335  0.10432210  0.54526412     0.82300
N1388       N  0.69472169  0.07156726  0.53457229    -0.80200
C1389       C  0.54317942  0.17987689  0.97584371     0.79800
N1390       N  0.56275614  0.16601990  0.98463954    -0.78500
C1391       C  0.59570978  0.18037497  0.97431184     0.82200
N1392       N  0.60928024  0.20880129  0.95455585    -0.78500
C1393       C  0.58991990  0.22275631  0.94512573     0.82300
N1394       N  0.55689806  0.20816093  0.95568459    -0.80200
Fe1395     Fe  0.77934831  0.10216898  0.62282969     1.65800
Fe1396     Fe  0.77911017  0.17747381  0.62222259     1.73200
Fe1397     Fe  0.85495332  0.17706634  0.62230102     1.54400
O1398       O  0.85833297  0.14733247  0.66134165    -0.82100
O1399       O  0.80877437  0.20993027  0.58320192    -0.80400
O1400       O  0.80885597  0.09889075  0.66220506    -0.84600
O1401       O  0.80973799  0.09832687  0.58512380    -0.79500
O1402       O  0.85814839  0.21047504  0.66048385    -0.81300
O1403       O  0.74558342  0.14719156  0.58392671    -0.84000
C1404       C  0.83946848  0.11717542  0.57319844     0.96800
C1405       C  0.83890478  0.11788408  0.67339133     1.04200
O1406       O  0.80447855  0.15224990  0.62246985    -1.13000
O1407       O  0.74597125  0.14841023  0.66115107    -0.75400
O1408       O  0.74557283  0.09925834  0.66054928    -0.78900
O1409       O  0.85874147  0.14712870  0.58392891    -0.79600
C1410       C  0.73515532  0.11857959  0.67226105     0.95700
O1411       O  0.74646431  0.09865309  0.58351237    -0.77600
O1412       O  0.80920177  0.21124398  0.66049565    -0.82800
C1413       C  0.83859230  0.22028447  0.57155533     0.98300
C1414       C  0.83917792  0.22159448  0.67179490     1.04200
O1415       O  0.85814238  0.20996608  0.58326218    -0.78400
C1416       C  0.73547855  0.11764961  0.57216038     1.02500
C1417       C  0.61545184  0.16336068  0.98207571    -0.05900
C1418       C  0.64790663  0.18127584  0.99730438    -0.33300
C1419       C  0.66515442  0.16489451  0.50868846     0.35900
C1420       C  0.65157161  0.13018500  0.50071560    -0.06300
C1421       C  0.61974956  0.11233702  0.98322466    -0.33200
C1422       C  0.60155699  0.12875241  0.97480179     0.35800
H1423       H  0.65891914  0.20803075  0.00284069     0.16200
O1424       O  0.69597709  0.18291874  0.52530024    -0.60700
H1425       H  0.60816968  0.08562429  0.97726009     0.16200
O1426       O  0.57054338  0.11092595  0.95844147    -0.60800
H1427       H  0.55400133  0.09861418  0.97736248     0.43200
H1428       H  0.69035333  0.18300252  0.55031812     0.43100
C1429       C  0.61236935  0.45248486  0.98433420    -0.05900
C1430       C  0.64742265  0.46807362  0.49196368    -0.33300
C1431       C  0.66598253  0.50248012  0.50116726     0.35900
C1432       C  0.64975272  0.02185195  0.50283608    -0.06300
C1433       C  0.61457768  0.00513365  0.99703361    -0.33200
C1434       C  0.59621857  0.47216387  0.98479093     0.35800
H1435       H  0.65997308  0.45305276  0.49265056     0.16200
O1436       O  0.70064095  0.01716952  0.50765296    -0.60700
H1437       H  0.60099489  0.01911912  0.99886342     0.16200
O1438       O  0.56241282  0.45836235  0.97629513    -0.60800
H1439       H  0.56190000  0.46012738  0.95050582     0.43200
H1440       H  0.69998617  0.51056770  0.53473503     0.43100
C1441       C  0.50459354  0.34434913  0.98583239    -0.05900
C1442       C  0.99041518  0.31082508  0.99883477    -0.33300
C1443       C  0.95567734  0.29198459  0.00729264     0.35900
C1444       C  0.93440073  0.30567514  0.50179897    -0.06300
C1445       C  0.94868312  0.33861309  0.48806580    -0.33200
C1446       C  0.98336367  0.35754411  0.48034514     0.35800
H1447       H  0.00664025  0.29990364  0.00328065     0.16200
O1448       O  0.94326786  0.26024482  0.02114985    -0.60700
H1449       H  0.93309241  0.35023101  0.48366124     0.16200
O1450       O  0.49686921  0.39269260  0.47207651    -0.60800
H1451       H  0.50020811  0.40646884  0.49332456     0.43200
H1452       H  0.93657702  0.24482616  0.00073991     0.43100
C1453       C  0.82567728  0.30411318  0.50248974    -0.05900
C1454       C  0.84372674  0.33955134  0.50079462    -0.33300
C1455       C  0.82706430  0.35785477  0.49429593     0.35900
C1456       C  0.79122642  0.34100635  0.98969499    -0.06300
C1457       C  0.77333471  0.30537751  0.98926936    -0.33200
C1458       C  0.79014658  0.28701373  0.99619510     0.35800
H1459       H  0.87103142  0.35337629  0.50513309     0.16200
O1460       O  0.84613216  0.39243874  0.49214275    -0.60700
H1461       H  0.74623932  0.29172943  0.98376067     0.16200
O1462       O  0.77201951  0.25233300  0.99560016    -0.60800
H1463       H  0.77406142  0.24597057  0.97131950     0.43200
H1464       H  0.85086174  0.40046911  0.51668214     0.43100
C1465       C  0.93382733  0.12510635  0.50106316    -0.05900
C1466       C  0.95223857  0.16071425  0.50235967    -0.33300
C1467       C  0.98675861  0.17874758  0.49273009     0.35900
C1468       C  0.50676132  0.16277451  0.98667738    -0.06300
C1469       C  0.98572370  0.12573047  0.98127074    -0.33200
C1470       C  0.95121379  0.10770122  0.98995150     0.35800
H1471       H  0.93994371  0.17467688  0.51102688     0.16200
O1472       O  0.49965693  0.21133283  0.47475877    -0.60700
H1473       H  0.99827735  0.11181264  0.97322614     0.16200
O1474       O  0.93496301  0.07308625  0.98836519    -0.60800
H1475       H  0.92762332  0.06735952  0.96368515     0.43200
H1476       H  0.50819854  0.22513889  0.49631450     0.43100
C1477       C  0.82598920  0.01804362  0.51002190    -0.05900
C1478       C  0.79151588  0.00256564  0.50031922    -0.33300
C1479       C  0.77405511  0.46777381  0.49074168     0.35900
C1480       C  0.78933108  0.44773197  0.99498741    -0.06300
C1481       C  0.82329034  0.46312233  0.00663237    -0.33200
C1482       C  0.84199584  0.99797608  0.01333909     0.35800
H1483       H  0.77896615  0.01752368  0.49818870     0.16200
O1484       O  0.74096210  0.45405354  0.47953089    -0.60700
H1485       H  0.83616227  0.44856564  0.00948949     0.16200
O1486       O  0.87509997  0.01196934  0.02468522    -0.60800
H1487       H  0.88803229  0.01037533  0.00456947     0.43200
H1488       H  0.74251798  0.45993064  0.45439905     0.43100
C1489       C  0.83217752  0.31022121  0.73954598    -0.05900
C1490       C  0.79687286  0.29221038  0.74579625    -0.33300
C1491       C  0.77927107  0.30915514  0.75566633     0.35900
C1492       C  0.79684897  0.34480335  0.75853522    -0.06300
C1493       C  0.83208353  0.36259090  0.75231284    -0.33200
C1494       C  0.84966810  0.34578875  0.74301157     0.35800
H1495       H  0.78290943  0.26490453  0.74330185     0.16200
O1496       O  0.74476702  0.29072049  0.76109829    -0.60700
H1497       H  0.84634128  0.38989048  0.75470220     0.16200
O1498       O  0.88399947  0.36469248  0.73670814    -0.60800
H1499       H  0.88595907  0.36962628  0.71131932     0.43200
H1500       H  0.74214034  0.28259822  0.78554833     0.43100
C1501       C  0.51034522  0.34440702  0.74562144    -0.05900
C1502       C  0.99116165  0.30978600  0.75208634    -0.33300
C1503       C  0.95612581  0.29173961  0.74470922     0.35900
C1504       C  0.93959835  0.30892186  0.73218617    -0.06300
C1505       C  0.95871493  0.34368984  0.72560799    -0.33200
C1506       C  0.99376053  0.36161774  0.73198387     0.35800
H1507       H  0.00317912  0.29621961  0.76272010     0.16200
O1508       O  0.93812260  0.25757334  0.75085248    -0.60700
H1509       H  0.94637089  0.35710690  0.71534556     0.16200
O1510       O  0.51119334  0.39449053  0.72216339    -0.60800
H1511       H  0.01797777  0.39764505  0.70036533     0.43200
H1512       H  0.92960432  0.25526119  0.77511998     0.43100
C1513       C  0.79688033  0.45280469  0.75923564    -0.05900
C1514       C  0.77765181  0.46863870  0.75169771    -0.33300
C1515       C  0.79346951  0.00205972  0.74248035     0.35900
C1516       C  0.82936675  0.02151921  0.74162126    -0.06300
C1517       C  0.84866815  0.50665759  0.75061698    -0.33200
C1518       C  0.83270575  0.47224592  0.75867881     0.35800
H1519       H  0.75006053  0.45411368  0.75210675     0.16200
O1520       O  0.77371730  0.01642235  0.73515425    -0.60700
H1521       H  0.87607482  0.01986150  0.74924675     0.16200
O1522       O  0.85248233  0.45820379  0.76737593    -0.60800
H1523       H  0.86047377  0.45398337  0.74480805     0.43200
H1524       H  0.77154560  0.02598447  0.75764668     0.43100
C1525       C  0.50632647  0.16524535  0.75504358    -0.05900
C1526       C  0.99011875  0.13021931  0.74990064    -0.33300
C1527       C  0.95531300  0.11216573  0.74285803     0.35900
C1528       C  0.93634509  0.12907971  0.74074632    -0.06300
C1529       C  0.95308535  0.16427846  0.74581269    -0.33200
C1530       C  0.98812469  0.18240214  0.75337336     0.35800
H1531       H  0.50306756  0.11620824  0.75225048     0.16200
O1532       O  0.94024913  0.07790296  0.73766251    -0.60700
H1533       H  0.93892097  0.17770456  0.74428141     0.16200
O1534       O  0.00352206  0.21664810  0.75883655    -0.60800
H1535       H  0.00890394  0.22688403  0.73519995     0.43200
H1536       H  0.94151489  0.07504930  0.71212888     0.43100
C1537       C  0.61778450  0.45236703  0.75344606    -0.05900
C1538       C  0.63326902  0.47580803  0.78070693    -0.33300
C1539       C  0.64910131  0.01055375  0.77395540     0.35900
C1540       C  0.65176383  0.02217507  0.73947700    -0.06300
C1541       C  0.63747275  0.49892030  0.71228005    -0.33200
C1542       C  0.62006009  0.46415064  0.71902377     0.35800
H1543       H  0.63161842  0.46710641  0.80735696     0.16200
O1544       O  0.66312313  0.03299307  0.80109977    -0.60700
H1545       H  0.63960665  0.00755366  0.68540269     0.16200
O1546       O  0.60528533  0.44190488  0.69184671    -0.60800
H1547       H  0.62346073  0.43783055  0.68270235     0.43200
H1548       H  0.64447157  0.03652179  0.80985257     0.43100
C1549       C  0.65019661  0.12887608  0.74315572    -0.05900
C1550       C  0.61454776  0.11107126  0.74557825    -0.33300
C1551       C  0.59632576  0.12782370  0.75236143     0.35900
C1552       C  0.61372468  0.16317380  0.75786825    -0.08900
C1553       C  0.64955095  0.18096263  0.75633665    -0.33200
C1554       C  0.66775171  0.16416953  0.74850446     0.35800
H1555       H  0.60050143  0.08395857  0.74137698     0.16200
O1556       O  0.56149347  0.10904229  0.75470882    -0.60700
H1557       H  0.66350234  0.20804771  0.76068644     0.16200
O1558       O  0.70267645  0.18227550  0.74731210    -0.60800
H1559       H  0.70825697  0.19299524  0.72390006     0.43200
H1560       H  0.55318796  0.10515013  0.73022007     0.43100
C1561       C  0.66835588  0.55823024  0.23154449     0.79800
N1562       N  0.65502042  0.57717770  0.24371947    -0.78500
C1563       C  0.66825731  0.60999247  0.23364316     0.82200
N1564       N  0.69492037  0.62363739  0.21099892    -0.78500
C1565       C  0.70831972  0.60470908  0.19868401     0.82300
N1566       N  0.69463364  0.57192795  0.20867759    -0.80200
C1567       C  0.54354093  0.68268185  0.26338670     0.79800
N1568       N  0.56251228  0.66820908  0.25464232    -0.78500
C1569       C  0.59517760  0.68133955  0.26570576     0.82200
N1570       N  0.60906243  0.70955401  0.28598409    -0.78500
C1571       C  0.59037188  0.72438425  0.29500618     0.82300
N1572       N  0.55757437  0.71073177  0.28385096    -0.80200
C1573       C  0.84773685  0.55832603  0.23223156     0.79800
N1574       N  0.88075411  0.57762741  0.24213707    -0.78500
C1575       C  0.89975850  0.61008683  0.23126646     0.82200
N1576       N  0.88549778  0.62349029  0.20994357    -0.78500
C1577       C  0.85245203  0.60451918  0.19959635     0.82300
N1578       N  0.83369026  0.57185831  0.21063856    -0.80200
C1579       C  0.85067083  0.79122337  0.22977033     0.79800
N1580       N  0.83534709  0.76292751  0.20949607    -0.78500
C1581       C  0.85356690  0.74845709  0.19759115     0.82200
N1582       N  0.88710674  0.76239698  0.20603055    -0.78500
C1583       C  0.90249891  0.79056484  0.22612793     0.82300
N1584       N  0.88427779  0.80495602  0.23758407    -0.80200
C1585       C  0.77948507  0.91527045  0.26690090     0.79800
N1586       N  0.75074099  0.90124405  0.28659024    -0.78500
C1587       C  0.73627579  0.86839106  0.29686949     0.82200
N1588       N  0.75070236  0.84952393  0.28734911    -0.78500
C1589       C  0.77936699  0.86323375  0.26753731     0.82300
N1590       N  0.79365888  0.89616765  0.25770347    -0.80200
C1591       C  0.59803685  0.91570808  0.26078644     0.79800
N1592       N  0.61016875  0.90195484  0.28420096    -0.78500
C1593       C  0.59107338  0.86901198  0.29360556     0.82200
N1594       N  0.55916204  0.85001294  0.28020693    -0.78500
C1595       C  0.54656290  0.86364011  0.25689266     0.82300
N1596       N  0.56633265  0.89651176  0.24728074    -0.80200
Fe1597     Fe  0.58752916  0.79553804  0.37051379     1.65800
Fe1598     Fe  0.66328736  0.87058106  0.37117209     1.73200
Fe1599     Fe  0.66334640  0.79534784  0.37113846     1.54400
O1600       O  0.63357679  0.76264048  0.40967802    -0.82100
O1601       O  0.69785304  0.87418574  0.33381165    -0.80400
O1602       O  0.58376227  0.76162202  0.40845657    -0.84600
O1603       O  0.58457139  0.76291386  0.33143579    -0.79500
O1604       O  0.69658048  0.82513132  0.40954164    -0.81300
O1605       O  0.63406939  0.87389492  0.33168701    -0.84000
C1606       C  0.60378136  0.75179501  0.32085403     0.96800
C1607       C  0.60331195  0.75140677  0.42028955     1.04200
O1608       O  0.63803204  0.82048644  0.37089778    -1.13000
O1609       O  0.63250125  0.87419003  0.40851515    -0.75400
O1610       O  0.58398589  0.82485310  0.40960033    -0.78900
O1611       O  0.63343563  0.76197435  0.33291845    -0.79600
C1612       C  0.60287492  0.85489009  0.42036470     0.95700
O1613       O  0.58414527  0.82589127  0.33244074    -0.77600
O1614       O  0.69550358  0.87354400  0.41094219    -0.82800
C1615       C  0.70818542  0.85477990  0.32212097     0.98300
C1616       C  0.70636971  0.85433600  0.42194702     1.04200
O1617       O  0.69663239  0.82466211  0.33262975    -0.78400
C1618       C  0.60390795  0.85525784  0.32057163     1.02500
C1619       C  0.84593780  0.55439076  0.01702060     0.79800
N1620       N  0.87841529  0.57268759  0.00531015    -0.78500
C1621       C  0.89814907  0.60585169  0.01378560     0.82200
N1622       N  0.88498082  0.62066009  0.03480921    -0.78500
C1623       C  0.85235078  0.60248629  0.04671518     0.82300
N1624       N  0.83297026  0.56939058  0.03768852    -0.80200
C1625       C  0.77225880  0.91193455  0.48421783     0.79800
N1626       N  0.74560083  0.89897433  0.46155465    -0.78500
C1627       C  0.73262850  0.86691270  0.44920129     0.82200
N1628       N  0.74675430  0.84789101  0.45916947    -0.78500
C1629       C  0.77358244  0.86065055  0.48157950     0.82300
N1630       N  0.78605119  0.89259162  0.49388616    -0.80200
C1631       C  0.89748642  0.78782212  0.01137060     0.79800
N1632       N  0.88435219  0.76087130  0.03342713    -0.78500
C1633       C  0.85139639  0.74660611  0.04430090     0.82200
N1634       N  0.83163611  0.75968622  0.03334055    -0.78500
C1635       C  0.84457926  0.78662728  0.01140147     0.82300
N1636       N  0.87740471  0.80052133  0.00083849    -0.80200
C1637       C  0.54172897  0.86380527  0.47685787     0.79800
N1638       N  0.55620541  0.84980377  0.45680490    -0.78500
C1639       C  0.58908103  0.86868228  0.44620537     0.82200
N1640       N  0.60757704  0.90170805  0.45598179    -0.78500
C1641       C  0.59328431  0.91592441  0.47609499     0.82300
N1642       N  0.56024934  0.89688963  0.48612044    -0.80200
C1643       C  0.66747904  0.55847616  0.01153126     0.79800
N1644       N  0.65458688  0.57817786  0.00053734    -0.78500
C1645       C  0.66807779  0.61076892  0.01111824     0.82200
N1646       N  0.69498689  0.62372588  0.03350163    -0.78500
C1647       C  0.70839530  0.60441619  0.04478341     0.82300
N1648       N  0.69444512  0.57171233  0.03388237    -0.80200
C1649       C  0.54278674  0.68055338  0.47583727     0.79800
N1650       N  0.56237054  0.66679897  0.48495559    -0.78500
C1651       C  0.59551530  0.68146418  0.47523931     0.82200
N1652       N  0.60917197  0.70996769  0.45561728    -0.78500
C1653       C  0.58977968  0.72378061  0.44581121     0.82300
N1654       N  0.55657000  0.70897372  0.45588166    -0.80200
Fe1655     Fe  0.77910594  0.60193770  0.12224553     1.65800
Fe1656     Fe  0.77894348  0.67726116  0.12195919     1.73200
Fe1657     Fe  0.85476081  0.67682317  0.12173932     1.54400
O1658       O  0.85811404  0.64729425  0.16090639    -0.82100
O1659       O  0.80885150  0.71006311  0.08328100    -0.80400
O1660       O  0.80883721  0.59863283  0.16140321    -0.84600
O1661       O  0.80933112  0.59815280  0.08428689    -0.79500
O1662       O  0.85806004  0.71033897  0.15975037    -0.81300
O1663       O  0.74557570  0.64730026  0.08334385    -0.84000
C1664       C  0.83921760  0.61690343  0.07268019     0.96800
C1665       C  0.83878800  0.61777088  0.17278716     1.04200
O1666       O  0.80427323  0.65201391  0.12197513    -1.13000
O1667       O  0.74559251  0.64792331  0.16060853    -0.75400
O1668       O  0.74554240  0.59895072  0.16026313    -0.78900
O1669       O  0.85855868  0.64675086  0.08361913    -0.79600
C1670       C  0.73498566  0.61818517  0.17188618     0.95700
O1671       O  0.74597804  0.59851177  0.08315595    -0.77600
O1672       O  0.80887396  0.71060434  0.16061945    -0.82800
C1673       C  0.83851284  0.72018024  0.07129592     0.98300
C1674       C  0.83899057  0.72111343  0.17157138     1.04200
O1675       O  0.85793935  0.70955056  0.08257112    -0.78400
C1676       C  0.73520918  0.61766305  0.07168825     1.02500
C1677       C  0.61525354  0.66442647  0.48298137    -0.05900
C1678       C  0.64778723  0.68230327  0.49808059    -0.33300
C1679       C  0.66510409  0.66522445  0.00770074     0.35900
C1680       C  0.65103496  0.63028381  0.00067904    -0.06300
C1681       C  0.61958126  0.61341935  0.48372347    -0.33200
C1682       C  0.60135563  0.62984847  0.47554734     0.35800
H1683       H  0.65884435  0.70905284  0.50366863     0.16200
O1684       O  0.69649811  0.68349446  0.02315344    -0.60700
H1685       H  0.60797141  0.58672873  0.47764088     0.16200
O1686       O  0.57034384  0.61208560  0.45916625    -0.60800
H1687       H  0.55387447  0.59933210  0.47799503     0.43200
H1688       H  0.69175398  0.68448261  0.04828146     0.43100
C1689       C  0.61269394  0.95235467  0.48509513    -0.05900
C1690       C  0.64814607  0.96776764  0.99196631    -0.33300
C1691       C  0.66663119  0.00223732  0.00087657     0.35900
C1692       C  0.64952061  0.52208257  0.00184286    -0.06300
C1693       C  0.61568887  0.50729645  0.49017618    -0.33200
C1694       C  0.59630521  0.97179530  0.48656217     0.35800
H1695       H  0.66146210  0.95353959  0.98992892     0.16200
O1696       O  0.70012972  0.51705687  0.00788654    -0.60700
H1697       H  0.60271744  0.52190973  0.48924869     0.16200
O1698       O  0.56228342  0.95780042  0.47898883    -0.60800
H1699       H  0.56115623  0.95999013  0.45331391     0.43200
H1700       H  0.70402151  0.01198133  0.03041295     0.43100
C1701       C  0.50524625  0.84417408  0.48573799    -0.05900
C1702       C  0.99044972  0.81104745  0.49860548    -0.33300
C1703       C  0.95570975  0.79225264  0.50712500     0.35900
C1704       C  0.93417967  0.80593732  0.00158466    -0.06300
C1705       C  0.94828330  0.83869616  0.98740440    -0.33200
C1706       C  0.98292601  0.85764765  0.97948503     0.35800
H1707       H  0.00655124  0.79992350  0.50264185     0.16200
O1708       O  0.94316478  0.76031353  0.52049741    -0.60700
H1709       H  0.93259002  0.85016997  0.98280813     0.16200
O1710       O  0.49663886  0.88847323  0.96462314    -0.60800
H1711       H  0.49698792  0.90367290  0.98337086     0.43200
H1712       H  0.93627156  0.74514798  0.49986695     0.43100
C1713       C  0.82547662  0.80435810  0.00335207    -0.05900
C1714       C  0.84330845  0.83981343  0.00334808    -0.33300
C1715       C  0.82665772  0.85815113  0.99705685     0.35900
C1716       C  0.79129752  0.84138022  0.48976443    -0.06300
C1717       C  0.77352878  0.80575368  0.48877464    -0.33200
C1718       C  0.79032621  0.78738454  0.49578484     0.35800
H1719       H  0.87042859  0.85358334  0.00878847     0.16200
O1720       O  0.84558682  0.89280119  0.99659935    -0.60700
H1721       H  0.74654599  0.79210554  0.48271420     0.16200
O1722       O  0.77233415  0.75271465  0.49456546    -0.60800
H1723       H  0.77488195  0.74677963  0.47026034     0.43200
H1724       H  0.84883609  0.89974766  0.02149995     0.43100
C1725       C  0.93438672  0.62478446  0.00220151    -0.05900
C1726       C  0.95238735  0.66041925  0.00232770    -0.33300
C1727       C  0.98692655  0.67855673  0.99272480     0.35900
C1728       C  0.50611309  0.66267225  0.48531531    -0.06300
C1729       C  0.98711555  0.62529973  0.48607130    -0.33200
C1730       C  0.95268020  0.60715915  0.49506280     0.35800
H1731       H  0.93972902  0.67432791  0.00998234     0.16200
O1732       O  0.50231678  0.71387437  0.98641261    -0.60700
H1733       H  0.00029445  0.61139123  0.48055098     0.16200
O1734       O  0.93740343  0.57262873  0.49730711    -0.60800
H1735       H  0.93092579  0.56434634  0.47299334     0.43200
H1736       H  0.51076296  0.72308951  0.01008912     0.43100
C1737       C  0.82624082  0.51772688  0.01010486    -0.05900
C1738       C  0.79183671  0.50237733  0.00015258    -0.33300
C1739       C  0.77333378  0.96760705  0.99290190     0.35900
C1740       C  0.78930537  0.94808361  0.49478627    -0.06300
C1741       C  0.82334796  0.96359940  0.50616476    -0.33200
C1742       C  0.84151089  0.49711631  0.51495363     0.35800
H1743       H  0.77941829  0.51744094  0.99779664     0.16200
O1744       O  0.73962887  0.95327834  0.98369526    -0.60700
H1745       H  0.83636612  0.94915568  0.50873963     0.16200
O1746       O  0.87396640  0.51063355  0.52808109    -0.60800
H1747       H  0.88780057  0.50917439  0.50878986     0.43200
H1748       H  0.73968271  0.95900487  0.95868973     0.43100
C1749       C  0.83216724  0.80911154  0.24043932    -0.05900
C1750       C  0.79691998  0.79106769  0.24698669    -0.33300
C1751       C  0.77927939  0.80803634  0.25659476     0.35900
C1752       C  0.79675956  0.84372550  0.25885299    -0.06300
C1753       C  0.83197106  0.86152515  0.25249322    -0.33200
C1754       C  0.84959873  0.84470291  0.24348556     0.35800
H1755       H  0.78302580  0.76373224  0.24484284     0.16200
O1756       O  0.74482370  0.78956951  0.26231628    -0.60700
H1757       H  0.84616717  0.88885601  0.25447922     0.16200
O1758       O  0.88388632  0.86360725  0.23694461    -0.60800
H1759       H  0.88569827  0.86797631  0.21144206     0.43200
H1760       H  0.74241098  0.78190801  0.28692605     0.43100
C1761       C  0.51038480  0.84402952  0.24520470    -0.05900
C1762       C  0.99119350  0.80914697  0.25206202    -0.33300
C1763       C  0.95616001  0.79099239  0.24472490     0.35900
C1764       C  0.93959189  0.80802657  0.23192048    -0.06300
C1765       C  0.95867721  0.84268930  0.22481145    -0.33200
C1766       C  0.99373356  0.86070525  0.23108921     0.35800
H1767       H  0.00323251  0.79572330  0.26300731     0.16200
O1768       O  0.93818845  0.75688768  0.25121779    -0.60700
H1769       H  0.94628787  0.85595085  0.21425159     0.16200
O1770       O  0.51068794  0.89424714  0.22300673    -0.60800
H1771       H  0.01806996  0.89620384  0.19895016     0.43200
H1772       H  0.92997812  0.75481571  0.27558670     0.43100
C1773       C  0.79669975  0.95167076  0.25772405    -0.05900
C1774       C  0.77748288  0.96751398  0.25017456    -0.33300
C1775       C  0.79323068  0.50268722  0.24311947     0.35900
C1776       C  0.82914163  0.52190451  0.24186934    -0.06300
C1777       C  0.84849694  0.00550251  0.24893912    -0.33200
C1778       C  0.83253303  0.97107834  0.25697425     0.35800
H1779       H  0.74989194  0.95301201  0.25065953     0.16200
O1780       O  0.77363178  0.51728566  0.23610738    -0.60700
H1781       H  0.87570214  0.51988729  0.24902018     0.16200
O1782       O  0.85232704  0.95702807  0.26556212    -0.60800
H1783       H  0.86013251  0.95267607  0.24294626     0.43200
H1784       H  0.77174497  0.52690858  0.25868009     0.43100
C1785       C  0.50682566  0.66523814  0.25415662    -0.05900
C1786       C  0.99041598  0.63010723  0.24788236    -0.33300
C1787       C  0.95563643  0.61217658  0.24056808     0.35900
C1788       C  0.93660552  0.62904895  0.23934126    -0.06300
C1789       C  0.95328120  0.66412791  0.24515967    -0.33200
C1790       C  0.98827866  0.68213062  0.25292839     0.35800
H1791       H  0.50415888  0.61660086  0.24868197     0.16200
O1792       O  0.94061832  0.57807141  0.23433002    -0.60700
H1793       H  0.93906719  0.67752752  0.24417482     0.16200
O1794       O  0.00357626  0.71625263  0.25913565    -0.60800
H1795       H  0.00961129  0.72698471  0.23574704     0.43200
H1796       H  0.94164101  0.57591683  0.20864549     0.43100
C1797       C  0.61768550  0.95207746  0.25279913    -0.05900
C1798       C  0.63231549  0.97547644  0.28022435    -0.33300
C1799       C  0.64920417  0.51025049  0.27393302     0.35900
C1800       C  0.65173292  0.52192006  0.23948596    -0.06300
C1801       C  0.63821902  0.99863065  0.21159621    -0.33200
C1802       C  0.62081642  0.96385433  0.21828542     0.35800
H1803       H  0.63002098  0.96673631  0.30693860     0.16200
O1804       O  0.66337483  0.53266072  0.30107831    -0.60700
H1805       H  0.63921084  0.50733362  0.18545649     0.16200
O1806       O  0.60690156  0.94159495  0.19097918    -0.60800
H1807       H  0.62536412  0.93754211  0.18271986     0.43200
H1808       H  0.64480453  0.53627144  0.30992590     0.43100
C1809       C  0.65062634  0.62888972  0.24340080    -0.05900
C1810       C  0.61503880  0.61103462  0.24662952    -0.33300
C1811       C  0.59684807  0.62781464  0.25340384     0.35900
C1812       C  0.61422168  0.66325753  0.25809779    -0.08900
C1813       C  0.65000124  0.68113746  0.25583822    -0.33200
C1814       C  0.66816485  0.66430177  0.24798177     0.35800
H1815       H  0.60098125  0.58384125  0.24303395     0.16200
O1816       O  0.56208011  0.60900340  0.25654205    -0.60700
H1817       H  0.66391338  0.70831135  0.25956677     0.16200
O1818       O  0.70304721  0.68251489  0.24595072    -0.60800
H1819       H  0.70805515  0.69283466  0.22234560     0.43200
H1820       H  0.55329169  0.60418404  0.23223620     0.43100
C1821       C  0.66860268  0.55857127  0.73170119     0.79800
N1822       N  0.65523435  0.57750322  0.74381978    -0.78500
C1823       C  0.66841840  0.61028532  0.73366120     0.82200
N1824       N  0.69506151  0.62390931  0.71098696    -0.78500
C1825       C  0.70848671  0.60498085  0.69873083     0.82300
N1826       N  0.69484964  0.57223478  0.70880823    -0.80200
C1827       C  0.54355794  0.68279625  0.76368486     0.79800
N1828       N  0.56246341  0.66826558  0.75488333    -0.78500
C1829       C  0.59519449  0.68146005  0.76577301     0.82200
N1830       N  0.60915802  0.70972100  0.78598122    -0.78500
C1831       C  0.59050361  0.72456741  0.79506275     0.82300
N1832       N  0.55767734  0.71090413  0.78403723    -0.80200
C1833       C  0.84819365  0.55892111  0.73248178     0.79800
N1834       N  0.88119680  0.57827968  0.74236934    -0.78500
C1835       C  0.90021446  0.61068180  0.73135339     0.82200
N1836       N  0.88593508  0.62400309  0.70991503    -0.78500
C1837       C  0.85285624  0.60497825  0.69962448     0.82300
N1838       N  0.83412538  0.57236129  0.71080004    -0.80200
C1839       C  0.85071858  0.79126651  0.72973224     0.79800
N1840       N  0.83544006  0.76309152  0.70926233    -0.78500
C1841       C  0.85365853  0.74863226  0.69729578     0.82200
N1842       N  0.88717118  0.76248083  0.70583522    -0.78500
C1843       C  0.90252553  0.79052468  0.72611663     0.82300
N1844       N  0.88428676  0.80486266  0.73766587    -0.80200
C1845       C  0.77964582  0.91531841  0.76758177     0.79800
N1846       N  0.75086461  0.90121232  0.78720979    -0.78500
C1847       C  0.73632356  0.86830395  0.79729830     0.82200
N1848       N  0.75068817  0.84942422  0.78760520    -0.78500
C1849       C  0.77939503  0.86321649  0.76784992     0.82300
N1850       N  0.79380563  0.89622907  0.75825156    -0.80200
C1851       C  0.59795631  0.91592048  0.76139404     0.79800
N1852       N  0.61013949  0.90214490  0.78473746    -0.78500
C1853       C  0.59106204  0.86918366  0.79411216     0.82200
N1854       N  0.55912731  0.85019061  0.78074083    -0.78500
C1855       C  0.54648109  0.86383403  0.75749363     0.82300
N1856       N  0.56623259  0.89672044  0.74793038    -0.80200
Fe1857     Fe  0.58753628  0.79545288  0.87068487     1.65800
Fe1858     Fe  0.66329566  0.87044890  0.87157133     1.73200
Fe1859     Fe  0.66331436  0.79518637  0.87151083     1.54400
O1860       O  0.63346342  0.76244400  0.91002062    -0.82100
O1861       O  0.69785552  0.87404980  0.83420535    -0.80400
O1862       O  0.58361336  0.76132092  0.90841774    -0.84600
O1863       O  0.58472688  0.76310026  0.83142681    -0.79500
O1864       O  0.69650378  0.82490839  0.90996804    -0.81300
O1865       O  0.63412562  0.87392683  0.83208913    -0.84000
C1866       C  0.60389977  0.75189825  0.82096480     0.96800
C1867       C  0.60312124  0.75113496  0.92042299     1.04200
O1868       O  0.63803209  0.82036172  0.87120626    -1.13000
O1869       O  0.63247665  0.87392052  0.90897375    -0.75400
O1870       O  0.58397969  0.82454977  0.90996377    -0.78900
O1871       O  0.63344699  0.76188205  0.83322877    -0.79600
C1872       C  0.60287826  0.85453561  0.92085138     0.95700
O1873       O  0.58417729  0.82597887  0.83280587    -0.77600
O1874       O  0.69550583  0.87335726  0.91133768    -0.82800
C1875       C  0.70821616  0.85465489  0.82253559     0.98300
C1876       C  0.70633361  0.85412465  0.92236023     1.04200
O1877       O  0.69667932  0.82453816  0.83305282    -0.78400
C1878       C  0.60394283  0.85536094  0.82098952     1.02500
C1879       C  0.84615338  0.55402914  0.51747880     0.79800
N1880       N  0.87873401  0.57225354  0.50601545    -0.78500
C1881       C  0.89841458  0.60543861  0.51445627     0.82200
N1882       N  0.88513798  0.62033956  0.53518425    -0.78500
C1883       C  0.85244315  0.60222179  0.54691796     0.82300
N1884       N  0.83308025  0.56910080  0.53792179    -0.80200
C1885       C  0.77235825  0.91168671  0.98456674     0.79800
N1886       N  0.74563425  0.89874437  0.96197703    -0.78500
C1887       C  0.73262153  0.86668577  0.94959056     0.82200
N1888       N  0.74676926  0.84765886  0.95945294    -0.78500
C1889       C  0.77366206  0.86040736  0.98177263     0.82300
N1890       N  0.78618369  0.89234197  0.99411005    -0.80200
C1891       C  0.89756165  0.78823662  0.51165797     0.79800
N1892       N  0.88429055  0.76109547  0.53345504    -0.78500
C1893       C  0.85126500  0.74669471  0.54410745     0.82200
N1894       N  0.83153673  0.75982134  0.53316198    -0.78500
C1895       C  0.84460332  0.78695807  0.51146589     0.82300
N1896       N  0.87752623  0.80100523  0.50114649    -0.80200
C1897       C  0.54183394  0.86309266  0.97779597     0.79800
N1898       N  0.55626036  0.84920994  0.95750790    -0.78500
C1899       C  0.58912897  0.86815035  0.94691514     0.82200
N1900       N  0.60764058  0.90110957  0.95689979    -0.78500
C1901       C  0.59338706  0.91520132  0.97725246     0.82300
N1902       N  0.56036644  0.89610158  0.98728506    -0.80200
C1903       C  0.66796744  0.55875765  0.51065116     0.79800
N1904       N  0.65526387  0.57861687  0.49965215    -0.78500
C1905       C  0.66861867  0.61107867  0.51058979     0.82200
N1906       N  0.69525295  0.62378641  0.53330142    -0.78500
C1907       C  0.70851470  0.60434994  0.54459099     0.82300
N1908       N  0.69466204  0.57174428  0.53336922    -0.80200
C1909       C  0.54222792  0.68025133  0.97567070     0.79800
N1910       N  0.56165209  0.66634243  0.98487084    -0.78500
C1911       C  0.59485866  0.68098207  0.97536380     0.82200
N1912       N  0.60868702  0.70954599  0.95581956    -0.78500
C1913       C  0.58942439  0.72346856  0.94590548     0.82300
N1914       N  0.55617797  0.70873769  0.95582415    -0.80200
Fe1915     Fe  0.77919167  0.60197284  0.62232588     1.65800
Fe1916     Fe  0.77893401  0.67727245  0.62178474     1.73200
Fe1917     Fe  0.85478654  0.67691271  0.62145690     1.54400
O1918       O  0.85836222  0.64751161  0.66063942    -0.82100
O1919       O  0.80865600  0.70996085  0.58294516    -0.80400
O1920       O  0.80901064  0.59893211  0.66161730    -0.84600
O1921       O  0.80944007  0.59799487  0.58449945    -0.79500
O1922       O  0.85811869  0.71047417  0.65945556    -0.81300
O1923       O  0.74549140  0.64709283  0.58334423    -0.84000
C1924       C  0.83925143  0.61676004  0.57271359     0.96800
C1925       C  0.83906262  0.61809159  0.67277304     1.04200
O1926       O  0.80430716  0.65205651  0.62184329    -1.13000
O1927       O  0.74574168  0.64811397  0.66059364    -0.75400
O1928       O  0.74559550  0.59909954  0.66025789    -0.78900
O1929       O  0.85850487  0.64674384  0.58336193    -0.79600
C1930       C  0.73510635  0.61838594  0.67189249     0.95700
O1931       O  0.74603780  0.59836835  0.58310423    -0.77600
O1932       O  0.80896505  0.71080884  0.66027784    -0.82800
C1933       C  0.83833864  0.72015570  0.57099190     0.98300
C1934       C  0.83907758  0.72130277  0.67124135     1.04200
O1935       O  0.85780530  0.70957479  0.58227771    -0.78400
C1936       C  0.73520788  0.61748319  0.57164396     1.02500
C1937       C  0.61454946  0.66393157  0.98330760    -0.05900
C1938       C  0.64704095  0.68184864  0.99848787    -0.33300
C1939       C  0.66581907  0.66562054  0.50720321     0.35900
C1940       C  0.65165957  0.63067177  0.50018613    -0.06300
C1941       C  0.61897778  0.61297608  0.98417302    -0.33200
C1942       C  0.60070679  0.62934954  0.97592704     0.35800
H1943       H  0.65804799  0.70859606  0.00405974     0.16200
O1944       O  0.69727949  0.68383776  0.52253596    -0.60700
H1945       H  0.60742952  0.58629053  0.97809040     0.16200
O1946       O  0.56971873  0.61153126  0.95951623    -0.60800
H1947       H  0.55322020  0.59887256  0.97835586     0.43200
H1948       H  0.69263993  0.68496418  0.54766798     0.43100
C1949       C  0.61274418  0.95163579  0.98627235    -0.05900
C1950       C  0.64787099  0.96815517  0.49200755    -0.33300
C1951       C  0.66632467  0.00253444  0.50130754     0.35900
C1952       C  0.65006709  0.52245515  0.50048015    -0.06300
C1953       C  0.61467072  0.50642146  0.99343501    -0.33200
C1954       C  0.59612034  0.97081862  0.98872741     0.35800
H1955       H  0.66100053  0.95370434  0.49071851     0.16200
O1956       O  0.69977652  0.51642532  0.50981688    -0.60700
H1957       H  0.60133903  0.52070266  0.99385514     0.16200
O1958       O  0.56183437  0.95651156  0.98245379    -0.60800
H1959       H  0.55979669  0.95868743  0.95690651     0.43200
H1960       H  0.70253451  0.01154463  0.53228672     0.43100
C1961       C  0.50532001  0.84356427  0.98641296    -0.05900
C1962       C  0.99040692  0.81086733  0.99817563    -0.33300
C1963       C  0.95569025  0.79198538  0.00674860     0.35900
C1964       C  0.93431780  0.80636347  0.50207752    -0.06300
C1965       C  0.94859090  0.83923477  0.48816559    -0.33200
C1966       C  0.98326211  0.85810063  0.48030645     0.35800
H1967       H  0.00662422  0.79989291  0.00234132     0.16200
O1968       O  0.94328933  0.76013674  0.02031214    -0.60700
H1969       H  0.93299718  0.85083974  0.48370111     0.16200
O1970       O  0.49648841  0.88964082  0.46592684    -0.60800
H1971       H  0.49753105  0.90449520  0.48539649     0.43200
H1972       H  0.93666818  0.74489207  0.99976225     0.43100
C1973       C  0.82546445  0.80466626  0.50340765    -0.05900
C1974       C  0.84317498  0.84011766  0.50381414    -0.33300
C1975       C  0.82649368  0.85842255  0.49747248     0.35900
C1976       C  0.79137378  0.84112646  0.98982271    -0.06300
C1977       C  0.77348477  0.80549694  0.98920756    -0.33200
C1978       C  0.79025460  0.78709998  0.99617311     0.35800
H1979       H  0.87022581  0.85390595  0.50960218     0.16200
O1980       O  0.84533719  0.89307965  0.49743548    -0.60700
H1981       H  0.74642751  0.79187399  0.98350407     0.16200
O1982       O  0.77214419  0.75242192  0.99537333    -0.60800
H1983       H  0.77431502  0.74619505  0.97107399     0.43200
H1984       H  0.84814883  0.89975560  0.52240771     0.43100
C1985       C  0.93467639  0.62432579  0.50308243    -0.05900
C1986       C  0.95194963  0.65985994  0.50067388    -0.33300
C1987       C  0.98643495  0.67800625  0.49085578     0.35900
C1988       C  0.50550680  0.66239203  0.98475261    -0.06300
C1989       C  0.98622119  0.62568082  0.98284952    -0.33200
C1990       C  0.95173972  0.60757494  0.99164669     0.35800
H1991       H  0.93870264  0.67366248  0.50635776     0.16200
O1992       O  0.50167122  0.71347825  0.48271387    -0.60700
H1993       H  0.99894861  0.61176661  0.97540879     0.16200
O1994       O  0.93579787  0.57294216  0.99112097    -0.60800
H1995       H  0.92875660  0.56648542  0.96647875     0.43200
H1996       H  0.51002877  0.72414099  0.50590145     0.43100
C1997       C  0.82638582  0.51738973  0.51039564    -0.05900
C1998       C  0.79237846  0.50236799  0.49914632    -0.33300
C1999       C  0.77324511  0.96790322  0.49223664     0.35900
C2000       C  0.78945354  0.94783032  0.99515031    -0.06300
C2001       C  0.82358799  0.96338188  0.00622875    -0.33200
C2002       C  0.84176270  0.49771142  0.01376431     0.35800
H2003       H  0.78026859  0.51764776  0.49603556     0.16200
O2004       O  0.73965121  0.95364277  0.48261589    -0.60700
H2005       H  0.83664011  0.94895366  0.00860823     0.16200
O2006       O  0.87466345  0.51153283  0.02569423    -0.60800
H2007       H  0.88788485  0.50996529  0.00584322     0.43200
H2008       H  0.74000236  0.95944946  0.45759195     0.43100
C2009       C  0.83218905  0.80912596  0.74060482    -0.05900
C2010       C  0.79664750  0.79124854  0.74541039    -0.33300
C2011       C  0.77897550  0.80818864  0.75502926     0.35900
C2012       C  0.79675132  0.84371221  0.75910067    -0.06300
C2013       C  0.83221353  0.86135542  0.75453357    -0.33200
C2014       C  0.84986857  0.84455468  0.74551902     0.35800
H2015       H  0.78251664  0.76406039  0.74182949     0.16200
O2016       O  0.74424988  0.78995327  0.75887614    -0.60700
H2017       H  0.84657218  0.88854988  0.75796891     0.16200
O2018       O  0.88446647  0.86337691  0.74085804    -0.60800
H2019       H  0.88759618  0.86923025  0.71567417     0.43200
H2020       H  0.74047939  0.78107087  0.78308625     0.43100
C2021       C  0.51030780  0.84419419  0.74571844    -0.05900
C2022       C  0.99126469  0.80921213  0.75214785    -0.33300
C2023       C  0.95623016  0.79100765  0.74476568     0.35900
C2024       C  0.93962484  0.80800407  0.73195412    -0.06300
C2025       C  0.95867664  0.84268162  0.72490517    -0.33200
C2026       C  0.99372583  0.86074696  0.73123152     0.35800
H2027       H  0.00332816  0.79581141  0.76309124     0.16200
O2028       O  0.93829603  0.75689422  0.75121978    -0.60700
H2029       H  0.94626298  0.85592246  0.71435252     0.16200
O2030       O  0.51088934  0.89423455  0.72252683    -0.60800
H2031       H  0.01801029  0.89629562  0.69913131     0.43200
H2032       H  0.93007142  0.75478461  0.77558712     0.43100
C2033       C  0.79679803  0.95174736  0.75849583    -0.05900
C2034       C  0.77749469  0.96754736  0.75114907    -0.33300
C2035       C  0.79373227  0.50314421  0.74298153     0.35900
C2036       C  0.82964792  0.52252904  0.74224785    -0.06300
C2037       C  0.84848527  0.00565457  0.74960353    -0.33200
C2038       C  0.83262207  0.97122083  0.75761017     0.35800
H2039       H  0.74990855  0.95300453  0.75175793     0.16200
O2040       O  0.77406802  0.51754644  0.73538491    -0.60700
H2041       H  0.87626227  0.52080872  0.75042754     0.16200
O2042       O  0.85250595  0.95722490  0.76601870    -0.60800
H2043       H  0.86005803  0.95271167  0.74333095     0.43200
H2044       H  0.77184018  0.52721190  0.75778330     0.43100
C2045       C  0.50680471  0.66532834  0.75479376    -0.05900
C2046       C  0.99071013  0.63044901  0.74873318    -0.33300
C2047       C  0.95593873  0.61258250  0.74139414     0.35900
C2048       C  0.93707970  0.62961812  0.73947429    -0.06300
C2049       C  0.95393207  0.66478357  0.74478360    -0.33200
C2050       C  0.98892775  0.68271834  0.75262274     0.35800
H2051       H  0.50358718  0.61631278  0.75188223     0.16200
O2052       O  0.94076076  0.57836213  0.73583161    -0.60700
H2053       H  0.93986070  0.67830798  0.74335274     0.16200
O2054       O  0.00440305  0.71692441  0.75837419    -0.60800
H2055       H  0.01043344  0.72736576  0.73485253     0.43200
H2056       H  0.94251634  0.57577307  0.71032533     0.43100
C2057       C  0.61761690  0.95229058  0.75332123    -0.05900
C2058       C  0.63263627  0.97574366  0.78064317    -0.33300
C2059       C  0.64976011  0.51063351  0.77405166     0.35900
C2060       C  0.65198900  0.52228518  0.73964525    -0.06300
C2061       C  0.63774046  0.99878720  0.71205980    -0.33200
C2062       C  0.62034361  0.96402225  0.71882582     0.35800
H2063       H  0.63064880  0.96705551  0.80734325     0.16200
O2064       O  0.66421301  0.53305101  0.80114696    -0.60700
H2065       H  0.63898978  0.50771212  0.68568149     0.16200
O2066       O  0.60603509  0.94173131  0.69160388    -0.60800
H2067       H  0.62420338  0.93724284  0.68332082     0.43200
H2068       H  0.64578304  0.53679185  0.81017523     0.43100
C2069       C  0.65074098  0.62914547  0.74337293    -0.05900
C2070       C  0.61516022  0.61123099  0.74672009    -0.33300
C2071       C  0.59692672  0.62796378  0.75350947     0.35900
C2072       C  0.61425359  0.66341568  0.75809166    -0.08900
C2073       C  0.65002416  0.68135753  0.75569505    -0.33200
C2074       C  0.66822685  0.66456839  0.74783130     0.35800
H2075       H  0.60114167  0.58402487  0.74322284     0.16200
O2076       O  0.56217482  0.60910271  0.75679048    -0.60700
H2077       H  0.66389969  0.70854321  0.75933750     0.16200
O2078       O  0.70309989  0.68284026  0.74568484    -0.60800
H2079       H  0.70801475  0.69308359  0.72204462     0.43200
H2080       H  0.55327924  0.60439156  0.73252166     0.43100
loop_ 
_geom_bond_atom_site_label_1 
_geom_bond_atom_site_label_2 
_geom_bond_distance 
_geom_bond_site_symmetry_2 
_ccdc_geom_bond_type 
C1            N2   1.356       .  A
C1            N6   1.354       .  A
C1          C240   1.467       .  S
N2            C3   1.361       .  A
C3            N4   1.360       .  A
C3          C249   1.482       .  S
N4            C5   1.360       .  A
C5            N6   1.356       .  A
C5          C110   1.466       .  S
C7            N8   1.357       .  A
C7           N12   1.356       .  A
C7          C225   1.482       .  S
N8            C9   1.356       .  A
C9           N10   1.359       .  A
C9          C252   1.484       .  S
N10          C11   1.362       .  A
C11          N12   1.359       .  A
C11          C46   1.466       .  S
C13          N14   1.356       .  A
C13          N18   1.362       .  A
C13         C216   1.488       .  S
N14          C15   1.355       .  A
C15          N16   1.357       .  A
C15         C228   1.478       .  S
N16          C17   1.360       .  A
C17          N18   1.364       .  A
C17         C105   1.472       .  S
C19          N20   1.363       .  A
C19          N24   1.358       .  A
C19         C189   1.488       .  S
N20          C21   1.364       .  A
C21          N22   1.359       .  A
C21         C114   1.470       .  S
N22          C23   1.354       .  A
C23          N24   1.355       .  A
C23         C204   1.473       .  S
C25          N26   1.358       .  A
C25          N30   1.358       .  A
C25         C213   1.482       .  S
N26          C27   1.360       .  A
C27          N28   1.361       .  A
C27          C55   1.468       .  S
N28          C29   1.358       .  A
C29          N30   1.359       .  A
C29         C192   1.484       .  S
C31          N32   1.355       .  A
C31          N36   1.356       .  A
C31         C237   1.472       .  S
N32          C33   1.357       .  A
C33          N34   1.361       .  A
C33          C58   1.468       .  S
N34          C35   1.362       .  A
C35          N36   1.359       .  A
C35         C201   1.490       .  S
Fe37         O53   2.065       .  S
Fe37         O43   2.064       .  S
Fe37         O50   2.065       .  S
Fe37         O42   2.063       .  S
Fe37         O48   1.981       .  S
Fe38         O41   2.064       .  S
Fe38         O45   2.061       .  S
Fe38         O49   2.057       .  S
Fe38         O54   2.063       .  S
Fe38         O48   1.980       .  S
Fe39         O57   2.059       .  S
Fe39         O44   2.057       .  S
Fe39         O51   2.058       .  S
Fe39         O40   2.056       .  S
Fe39         O48   1.980       .  S
O40          C47   1.267       .  A
O41          C55   1.268       .  A
O42          C47   1.267       .  A
O43          C46   1.270       .  A
O44          C56   1.267       .  A
O45          C58   1.269       .  A
C46          O51   1.267       .  A
C47          C93   1.466       .  S
O49          C52   1.267       .  A
O50          C52   1.269       .  A
C52          C79   1.466       .  S
O53          C58   1.268       .  A
O54          C56   1.268       .  A
C55          O57   1.267       .  A
C56          C67   1.466       .  S
C59          N60   1.357       .  A
C59          N64   1.358       .  A
C59         C177   1.482       .  S
N60          C61   1.355       .  A
C61          N62   1.358       .  A
C61         C165   1.475       .  S
N62          C63   1.362       .  A
C63          N64   1.361       .  A
C63         C104   1.470       .  S
C65          N66   1.357       .  A
C65          N70   1.357       .  A
C65         C180   1.480       .  S
N66          C67   1.361       .  A
C67          N68   1.361       .  A
N68          C69   1.357       .  A
C69          N70   1.356       .  A
C69         C156   1.485       .  S
C71          N72   1.360       .  A
C71          N76   1.357       .  A
C71         C144   1.488       .  S
N72          C73   1.362       .  A
C73          N74   1.361       .  A
C73         C113   1.470       .  S
N74          C75   1.357       .  A
C75          N76   1.355       .  A
C75         C153   1.478       .  S
C77          N78   1.356       .  A
C77          N82   1.358       .  A
C77         C141   1.474       .  S
N78          C79   1.358       .  A
C79          N80   1.360       .  A
N80          C81   1.358       .  A
C81          N82   1.359       .  A
C81         C129   1.483       .  S
C83          N84   1.355       .  A
C83          N88   1.358       .  A
C83         C132   1.483       .  S
N84          C85   1.356       .  A
C85          N86   1.359       .  A
C85         C120   1.490       .  S
N86          C87   1.362       .  A
C87          N88   1.362       .  A
C87         C116   1.471       .  S
C89          N90   1.358       .  A
C89          N94   1.358       .  A
C89         C168   1.478       .  S
N90          C91   1.357       .  A
C91          N92   1.356       .  A
C91         C117   1.474       .  S
N92          C93   1.360       .  A
C93          N94   1.360       .  A
Fe95        O111   2.064       .  S
Fe95        O101   2.066       .  S
Fe95        O108   2.061       .  S
Fe95        O100   2.067       .  S
Fe95        O106   1.981       .  S
Fe96         O99   2.060       .  S
Fe96        O103   2.067       .  S
Fe96        O107   2.059       .  S
Fe96        O112   2.070       .  S
Fe96        O106   1.984       .  S
Fe97        O115   2.070       .  S
Fe97        O102   2.058       .  S
Fe97        O109   2.062       .  S
Fe97         O98   2.069       .  S
Fe97        O106   1.978       .  S
O98         C105   1.270       .  A
O99         C113   1.268       .  A
O100        C105   1.268       .  A
O101        C104   1.269       .  A
O102        C114   1.268       .  A
O103        C116   1.269       .  A
C104        O109   1.267       .  A
O107        C110   1.267       .  A
O108        C110   1.268       .  A
O111        C116   1.268       .  A
O112        C114   1.268       .  A
C113        O115   1.270       .  A
C117        C118   1.403       .  A
C117        C122   1.404       .  A
C118        C379   1.405       .  A
C118        H123   1.084       .  S
C119        C120   1.415       .  A
C119        C378   1.405   1_554  A
C119        O124   1.371       .  S
C120        C381   1.409   1_554  A
C121        C122   1.395       .  A
C121        C380   1.409       .  A
C121        H125   1.083       .  S
C122        O126   1.372       .  S
O124        H128   0.992       .  S
O126        H127   0.992       .  S
C129        C134   1.409       .  A
C129        C390   1.407       .  A
C130        C131   1.406   1_556  A
C130        C389   1.407       .  A
C130        H135   1.084       .  S
C131        C652   1.411       .  A
C131        O656   1.371       .  S
C132        C651   1.410   1_554  A
C132        C393   1.405   1_554  A
C133        C392   1.405       .  A
C133        C654   1.395   1_545  A
C133        H137   1.084       .  S
C134        C653   1.395       .  A
C134        O138   1.371       .  S
O136        C651   1.371   1_554  S
O136        H660   0.992       .  S
O138        H139   0.992       .  S
H140        O656   0.992       .  S
C141       C1182   1.404   1_455  A
C141       C1446   1.405   1_455  A
C142        C143   1.405       .  A
C142       C1181   1.405       .  A
C142        H147   1.084       .  S
C143        C404   1.413       .  A
C143        O148   1.371       .  S
C144        C145   1.407   1_554  A
C144        C403   1.413       .  A
C145        C146   1.396       .  A
C145        H149   1.083       .  S
C146       C1441   1.406       .  A
C146       O1190   1.372       .  S
O148        H152   0.992       .  S
O150       C1186   1.372       .  S
O150        H151   0.992       .  S
C153        C154   1.401       .  A
C153        C418   1.409   1_554  A
C154        C155   1.394   1_554  A
C154        H159   1.084       .  S
C155        C416   1.412       .  A
C155        O160   1.371       .  S
C156        C157   1.408       .  A
C156        C415   1.412       .  A
C157        C158   1.406       .  A
C157        H161   1.083       .  S
C158        C413   1.410       .  A
C158        O162   1.371       .  S
O160        H164   0.992   1_556  S
O162        H163   0.992       .  S
C165        C166   1.402   1_554  A
C165        C430   1.406       .  A
C166        C167   1.405       .  A
C166        H171   1.084       .  S
C167       C1468   1.416       .  A
C167       O1212   1.371       .  S
C168       C1467   1.409   1_455  A
C168       C1209   1.399   1_455  A
C169        C170   1.396       .  A
C169       C1208   1.404       .  A
C169        H173   1.083       .  S
C170        C425   1.408       .  A
C170        O174   1.372       .  S
O172       C1207   1.371   1_455  S
O172        H176   0.992   1_556  S
O174        H175   0.992       .  S
C177        C178   1.407       .  A
C177        C442   1.410       .  A
C178        C699   1.405   1_544  A
C178        H183   1.084       .  S
C179        C698   1.406   1_556  A
C179        C440   1.412       .  A
C179        O184   1.372       .  S
C180        C181   1.401       .  A
C180        C439   1.410       .  A
C181        C702   1.393       .  A
C181        H185   1.083       .  S
C182        C437   1.409   1_565  A
C182        C701   1.393       .  A
C182        O186   1.370   1_565  S
O184        H188   0.992       .  S
O186        H187   0.992       .  S
C189        C190   1.407       .  A
C189        C194   1.414       .  A
C190        C191   1.407       .  A
C190        H195   1.083       .  S
C191        C192   1.412       .  A
C191        O196   1.372       .  S
C192        C193   1.402       .  A
C193        C194   1.395       .  A
C193        H197   1.083       .  S
C194        O198   1.372       .  S
O196        H200   0.992       .  S
O198        H199   0.992       .  S
C201       C1242   1.410   1_455  A
C201       C1246   1.416   1_455  A
C202        C203   1.403       .  A
C202       C1241   1.410       .  A
C202        H207   1.083       .  S
C203        C204   1.406       .  A
C203        O208   1.372       .  S
C204        C205   1.400       .  A
C205        C206   1.396       .  A
C205        H209   1.084       .  S
C206       C1241   1.416       .  A
C206       O1250   1.371       .  S
O208        H212   0.992       .  S
O210       C1246   1.371   1_455  S
O210       H1251   0.992       .  S
H211       O1250   0.992       .  S
C213        C214   1.406       .  A
C213        C218   1.408       .  A
C214        C735   1.405       .  A
C214        H219   1.083       .  S
C215        C216   1.411       .  A
C215        C734   1.406   1_545  A
C215        O220   1.371       .  S
C216        C737   1.407       .  A
C217        C218   1.397       .  A
C217        C736   1.407       .  A
C217        H741   1.083       .  S
C218        O222   1.372       .  S
O220        H224   0.992       .  S
H221        C737   1.083       .  S
O222        H223   0.992       .  S
C225       C1266   1.403   1_455  A
C225       C1270   1.412   1_455  A
C226        C227   1.392       .  A
C226       C1265   1.403       .  A
C226       H1271   1.083       .  S
C227        C228   1.410       .  A
C227        O232   1.372       .  S
C228        C229   1.405       .  A
C229        C230   1.405       .  A
C229        H233   1.084       .  S
C230       C1265   1.412       .  A
C230        O234   1.372       .  S
H231       C1266   1.083   1_455  S
O232        H236   0.992       .  S
O234        H235   0.992       .  S
C237        C238   1.405       .  A
C237        C242   1.407       .  A
C238        C759   1.400       .  A
C238        H243   1.084       .  S
C239        C240   1.405       .  A
C239        C758   1.401   1_545  A
C239        O244   1.371       .  S
C240        C761   1.401   1_545  A
C241        C242   1.398       .  A
C241        C760   1.402       .  A
C241        H765   1.084       .  S
C242        O246   1.372       .  S
O244        H248   0.992       .  S
H245        C761   1.084   1_545  S
O246        H247   0.992       .  S
C249        C250   1.402       .  A
C249        C254   1.411       .  A
C250        C251   1.396       .  A
C250        H255   1.084       .  S
C251        C252   1.412       .  A
C251        O256   1.372       .  S
C252        C253   1.406       .  A
C253        C254   1.406       .  A
C253        H257   1.084       .  S
C254        O258   1.372       .  S
O256        H260   0.992       .  S
O258        H259   0.992       .  S
C261        N262   1.356       .  A
C261        N266   1.354       .  A
C261        C500   1.468       .  S
N262        C263   1.361       .  A
C263        N264   1.360       .  A
C263        C509   1.481       .  S
N264        C265   1.360       .  A
C265        N266   1.357       .  A
C265        C370   1.467       .  S
C267        N268   1.357       .  A
C267        N272   1.356       .  A
C267        C485   1.482       .  S
N268        C269   1.356       .  A
C269        N270   1.359       .  A
C269        C512   1.485       .  S
N270        C271   1.362       .  A
C271        N272   1.359       .  A
C271        C306   1.466       .  S
C273        N274   1.356       .  A
C273        N278   1.361       .  A
C273        C476   1.488       .  S
N274        C275   1.355       .  A
C275        N276   1.357       .  A
C275        C488   1.479       .  S
N276        C277   1.361       .  A
C277        N278   1.364       .  A
C277        C365   1.472       .  S
C279        N280   1.362       .  A
C279        N284   1.358       .  A
C279        C449   1.486       .  S
N280        C281   1.364       .  A
C281        N282   1.360       .  A
C281        C374   1.471       .  S
N282        C283   1.354       .  A
C283        N284   1.355       .  A
C283        C464   1.473       .  S
C285        N286   1.358       .  A
C285        N290   1.358       .  A
C285        C473   1.481       .  S
N286        C287   1.360       .  A
C287        N288   1.361       .  A
C287        C315   1.468       .  S
N288        C289   1.358       .  A
C289        N290   1.359       .  A
C289        C452   1.487       .  S
C291        N292   1.354       .  A
C291        N296   1.356       .  A
C291        C497   1.471       .  S
N292        C293   1.357       .  A
C293        N294   1.361       .  A
C293        C318   1.467       .  S
N294        C295   1.362       .  A
C295        N296   1.359       .  A
C295        C461   1.490       .  S
Fe297       O313   2.064       .  S
Fe297       O303   2.063       .  S
Fe297       O310   2.064       .  S
Fe297       O302   2.063       .  S
Fe297       O308   1.981       .  S
Fe298       O301   2.065       .  S
Fe298       O305   2.061       .  S
Fe298       O309   2.058       .  S
Fe298       O314   2.063       .  S
Fe298       O308   1.979       .  S
Fe299       O317   2.059       .  S
Fe299       O304   2.057       .  S
Fe299       O311   2.058       .  S
Fe299       O300   2.057       .  S
Fe299       O308   1.980       .  S
O300        C307   1.267       .  A
O301        C315   1.268       .  A
O302        C307   1.267       .  A
O303        C306   1.269       .  A
O304        C316   1.267       .  A
O305        C318   1.269       .  A
C306        O311   1.267       .  A
C307        C353   1.466       .  S
O309        C312   1.267       .  A
O310        C312   1.269       .  A
C312        C339   1.467       .  S
O313        C318   1.268       .  A
O314        C316   1.268       .  A
C315        O317   1.267       .  A
C316        C327   1.465       .  S
C319        N320   1.357       .  A
C319        N324   1.358       .  A
C319        C437   1.482       .  S
N320        C321   1.357       .  A
C321        N322   1.359       .  A
C321        C425   1.480       .  S
N322        C323   1.362       .  A
C323        N324   1.361       .  A
C323        C364   1.471       .  S
C325        N326   1.357       .  A
C325        N330   1.358       .  A
C325        C440   1.483       .  S
N326        C327   1.360       .  A
C327        N328   1.361       .  A
N328        C329   1.357       .  A
C329        N330   1.356       .  A
C329        C416   1.485       .  S
C331        N332   1.360       .  A
C331        N336   1.357       .  A
C331        C404   1.488       .  S
N332        C333   1.362       .  A
C333        N334   1.361       .  A
C333        C373   1.470       .  S
N334        C335   1.357       .  A
C335        N336   1.355       .  A
C335        C413   1.479       .  S
C337        N338   1.356       .  A
C337        N342   1.358       .  A
C337        C401   1.473       .  S
N338        C339   1.358       .  A
C339        N340   1.360       .  A
N340        C341   1.358       .  A
C341        N342   1.359       .  A
C341        C389   1.482       .  S
C343        N344   1.355       .  A
C343        N348   1.359       .  A
C343        C392   1.485       .  S
N344        C345   1.356       .  A
C345        N346   1.360       .  A
C345        C380   1.491       .  S
N346        C347   1.362       .  A
C347        N348   1.362       .  A
C347        C376   1.472       .  S
C349        N350   1.358       .  A
C349        N354   1.358       .  A
C349        C428   1.479       .  S
N350        C351   1.357       .  A
C351        N352   1.356       .  A
C351        C377   1.473       .  S
N352        C353   1.359       .  A
C353        N354   1.361       .  A
Fe355       O371   2.065       .  S
Fe355       O361   2.065       .  S
Fe355       O368   2.061       .  S
Fe355       O360   2.067       .  S
Fe355       O366   1.981       .  S
Fe356       O359   2.062       .  S
Fe356       O363   2.069       .  S
Fe356       O367   2.061       .  S
Fe356       O372   2.071       .  S
Fe356       O366   1.984       .  S
Fe357       O375   2.069       .  S
Fe357       O362   2.059       .  S
Fe357       O369   2.064       .  S
Fe357       O358   2.069       .  S
Fe357       O366   1.979       .  S
O358        C365   1.270       .  A
O359        C373   1.268       .  A
O360        C365   1.268       .  A
O361        C364   1.268       .  A
O362        C374   1.268       .  A
O363        C376   1.269       .  A
C364        O369   1.268       .  A
O367        C370   1.267       .  A
O368        C370   1.268       .  A
O371        C376   1.269       .  A
O372        C374   1.268       .  A
C373        O375   1.269       .  A
C377        C378   1.403       .  A
C377        C382   1.404       .  A
C378        H383   1.084   1_556  S
C379        C380   1.415       .  A
C379        O384   1.371       .  S
C381        C382   1.395       .  A
C381        H385   1.083       .  S
C382        O386   1.372       .  S
O384        H388   0.992       .  S
O386        H387   0.992       .  S
C389        C394   1.409       .  A
C390        C391   1.406       .  A
C390        H395   1.084       .  S
C391        C912   1.411       .  A
C391        O916   1.372       .  S
C392        C911   1.411       .  A
C393        C914   1.394   1_545  A
C393        H397   1.084       .  S
C394        C913   1.394       .  A
C394        O398   1.371       .  S
O396        C911   1.371       .  S
O396        H920   0.992       .  S
O398        H399   0.992       .  S
H400        O916   0.992       .  S
C401       C1442   1.403   1_455  A
C401       C1186   1.404   1_455  A
C402       C1441   1.404       .  A
C402        C403   1.404   1_556  A
C402        H407   1.084       .  S
C403        O408   1.371       .  S
C404        C405   1.407       .  A
C405        C406   1.396       .  A
C405        H409   1.083       .  S
C406       C1181   1.407       .  A
C406       O1450   1.372       .  S
O408        H412   0.992   1_554  S
O410       C1446   1.372       .  S
O410        H411   0.992       .  S
C413        C414   1.401       .  A
C414        C415   1.394       .  A
C414        H419   1.084       .  S
C415        O420   1.372       .  S
C416        C417   1.409       .  A
C417        C418   1.406       .  A
C417        H421   1.083       .  S
C418        O422   1.371       .  S
O420        H424   0.992       .  S
O422        H423   0.992       .  S
C425        C426   1.404       .  A
C426        C427   1.406       .  A
C426        H431   1.084       .  S
C427       C1208   1.414       .  A
C427       O1472   1.371       .  S
C428       C1207   1.409   1_455  A
C428       C1469   1.400   1_455  A
C429       C1468   1.406   1_554  A
C429        C430   1.396       .  A
C429        H433   1.083       .  S
C430        O434   1.373       .  S
O432       C1467   1.371   1_455  S
O432        H436   0.992       .  S
O434        H435   0.992       .  S
C437        C438   1.407       .  A
C438        C959   1.406   1_545  A
C438        H443   1.084       .  S
C439        C958   1.407       .  A
C439        O444   1.372       .  S
C440        C441   1.402   1_556  A
C441        C962   1.394       .  A
C441        H445   1.082       .  S
C442        C961   1.393   1_544  A
C442        O446   1.371       .  S
O444        H448   0.992       .  S
O446        H447   0.992   1_554  S
C449        C450   1.406       .  A
C449        C454   1.412       .  A
C450        C451   1.407       .  A
C450        H455   1.084       .  S
C451        C452   1.413       .  A
C451        O456   1.372       .  S
C452        C453   1.403       .  A
C453        C454   1.395       .  A
C453        H457   1.083       .  S
C454        O458   1.372       .  S
O456        H460   0.992       .  S
O458        H459   0.992       .  S
C461       C1502   1.410   1_455  A
C461       C1506   1.416   1_455  A
C462       C1501   1.410       .  A
C462        C463   1.403       .  A
C462        H467   1.083       .  S
C463        C464   1.406       .  A
C463        O468   1.372       .  S
C464        C465   1.400       .  A
C465        C466   1.397       .  A
C465        H469   1.084       .  S
C466       C1501   1.416       .  A
C466       O1510   1.371       .  S
O468        H472   0.992       .  S
O470       C1506   1.371   1_455  S
O470       H1511   0.992       .  S
H471       O1510   0.992       .  S
C473        C474   1.406       .  A
C473        C478   1.408       .  A
C474        C995   1.406       .  A
C474        H479   1.083       .  S
C475        C994   1.406   1_545  A
C475        C476   1.412       .  A
C475        O480   1.371       .  S
C476        C997   1.407       .  A
C477        C996   1.407       .  A
C477        C478   1.396       .  A
C477       H1001   1.083       .  S
C478        O482   1.372       .  S
O480        H484   0.992       .  S
H481        C997   1.083       .  S
O482        H483   0.992       .  S
C485       C1526   1.403   1_455  A
C485       C1530   1.413   1_455  A
C486       C1525   1.403       .  A
C486        C487   1.392       .  A
C486       H1531   1.083       .  S
C487        C488   1.410       .  A
C487        O492   1.372       .  S
C488        C489   1.406       .  A
C489        C490   1.405       .  A
C489        H493   1.084       .  S
C490       C1525   1.412       .  A
C490        O494   1.372       .  S
H491       C1526   1.083   1_455  S
O492        H496   0.992       .  S
O494        H495   0.992       .  S
C497        C498   1.405       .  A
C497        C502   1.407       .  A
C498       C1019   1.400       .  A
C498        H503   1.084       .  S
C499       C1018   1.401   1_545  A
C499        C500   1.405       .  A
C499        O504   1.371       .  S
C500       C1021   1.401   1_545  A
C501       C1020   1.402       .  A
C501        C502   1.398       .  A
C501       H1025   1.084       .  S
C502        O506   1.372       .  S
O504        H508   0.992       .  S
H505       C1021   1.084   1_545  S
O506        H507   0.992       .  S
C509        C510   1.402       .  A
C509        C514   1.410       .  A
C510        C511   1.396       .  A
C510        H515   1.084       .  S
C511        C512   1.412       .  A
C511        O516   1.372       .  S
C512        C513   1.407       .  A
C513        C514   1.405       .  A
C513        H517   1.084       .  S
C514        O518   1.372       .  S
O516        H520   0.992       .  S
O518        H519   0.992       .  S
C521        N522   1.356       .  A
C521        N526   1.354       .  A
C521        C760   1.467       .  S
N522        C523   1.361       .  A
C523        N524   1.361       .  A
C523        C769   1.482       .  S
N524        C525   1.361       .  A
C525        N526   1.356       .  A
C525        C630   1.467       .  S
C527        N528   1.358       .  A
C527        N532   1.357       .  A
C527        C745   1.483       .  S
N528        C529   1.357       .  A
C529        N530   1.359       .  A
C529        C772   1.486       .  S
N530        C531   1.362       .  A
C531        N532   1.359       .  A
C531        C566   1.467       .  S
C533        N534   1.356       .  A
C533        N538   1.361       .  A
C533        C736   1.488       .  S
N534        C535   1.355       .  A
C535        N536   1.356       .  A
C535        C748   1.478       .  S
N536        C537   1.360       .  A
C537        N538   1.363       .  A
C537        C625   1.471       .  S
C539        N540   1.363       .  A
C539        N544   1.357       .  A
C539        C709   1.488       .  S
N540        C541   1.364       .  A
C541        N542   1.359       .  A
C541        C634   1.471       .  S
N542        C543   1.354       .  A
C543        N544   1.355       .  A
C543        C724   1.472       .  S
C545        N546   1.358       .  A
C545        N550   1.358       .  A
C545        C733   1.482       .  S
N546        C547   1.360       .  A
C547        N548   1.361       .  A
C547        C575   1.469       .  S
N548        C549   1.359       .  A
C549        N550   1.359       .  A
C549        C712   1.487       .  S
C551        N552   1.355       .  A
C551        N556   1.355       .  A
C551        C757   1.474       .  S
N552        C553   1.358       .  A
C553        N554   1.361       .  A
C553        C578   1.468       .  S
N554        C555   1.362       .  A
C555        N556   1.358       .  A
C555        C721   1.489       .  S
Fe557       O573   2.067       .  S
Fe557       O563   2.067       .  S
Fe557       O570   2.067       .  S
Fe557       O562   2.066       .  S
Fe557       O568   1.982       .  S
Fe558       O561   2.066       .  S
Fe558       O565   2.059       .  S
Fe558       O569   2.060       .  S
Fe558       O574   2.061       .  S
Fe558       O568   1.980       .  S
Fe559       O577   2.060       .  S
Fe559       O564   2.058       .  S
Fe559       O571   2.058       .  S
Fe559       O560   2.057       .  S
Fe559       O568   1.980       .  S
O560        C567   1.267       .  A
O561        C575   1.269       .  A
O562        C567   1.268       .  A
O563        C566   1.270       .  A
O564        C576   1.267       .  A
O565        C578   1.268       .  A
C566        O571   1.267       .  A
C567        C613   1.468       .  S
O569        C572   1.267       .  A
O570        C572   1.269       .  A
C572        C599   1.468       .  S
O573        C578   1.268       .  A
O574        C576   1.268       .  A
C575        O577   1.267       .  A
C576        C587   1.465       .  S
C579        N580   1.357       .  A
C579        N584   1.356       .  A
C579        C697   1.481       .  S
N580        C581   1.358       .  A
C581        N582   1.361       .  A
C581        C685   1.488       .  S
N582        C583   1.363       .  A
C583        N584   1.360       .  A
C583        C624   1.472       .  S
C585        N586   1.357       .  A
C585        N590   1.358       .  A
C585        C700   1.483       .  S
N586        C587   1.360       .  A
C587        N588   1.360       .  A
N588        C589   1.357       .  A
C589        N590   1.356       .  A
C589        C676   1.484       .  S
C591        N592   1.359       .  A
C591        N596   1.356       .  A
C591        C664   1.488       .  S
N592        C593   1.362       .  A
C593        N594   1.362       .  A
C593        C633   1.470       .  S
N594        C595   1.358       .  A
C595        N596   1.355       .  A
C595        C673   1.479       .  S
C597        N598   1.357       .  A
C597        N602   1.358       .  A
C597        C661   1.475       .  S
N598        C599   1.359       .  A
C599        N600   1.361       .  A
N600        C601   1.359       .  A
C601        N602   1.359       .  A
C601        C649   1.483       .  S
C603        N604   1.355       .  A
C603        N608   1.359       .  A
C603        C652   1.484       .  S
N604        C605   1.356       .  A
C605        N606   1.359       .  A
C605        C640   1.490       .  S
N606        C607   1.361       .  A
C607        N608   1.362       .  A
C607        C636   1.470       .  S
C609        N610   1.359       .  A
C609        N614   1.359       .  A
C609        C688   1.483       .  S
N610        C611   1.357       .  A
C611        N612   1.356       .  A
C611        C637   1.475       .  S
N612        C613   1.360       .  A
C613        N614   1.361       .  A
Fe615       O631   2.063       .  S
Fe615       O621   2.065       .  S
Fe615       O628   2.062       .  S
Fe615       O620   2.065       .  S
Fe615       O626   1.980       .  S
Fe616       O619   2.062       .  S
Fe616       O623   2.068       .  S
Fe616       O627   2.061       .  S
Fe616       O632   2.069       .  S
Fe616       O626   1.985       .  S
Fe617       O635   2.067       .  S
Fe617       O622   2.060       .  S
Fe617       O629   2.067       .  S
Fe617       O618   2.068       .  S
Fe617       O626   1.979       .  S
O618        C625   1.270       .  A
O619        C633   1.268       .  A
O620        C625   1.268       .  A
O621        C624   1.269       .  A
O622        C634   1.268       .  A
O623        C636   1.269       .  A
C624        O629   1.268       .  A
O627        C630   1.267       .  A
O628        C630   1.269       .  A
O631        C636   1.268       .  A
O632        C634   1.268       .  A
C633        O635   1.269       .  A
C637        C638   1.403       .  A
C637        C642   1.404       .  A
C638        C899   1.405       .  A
C638        H643   1.084       .  S
C639        C898   1.405   1_554  A
C639        C640   1.415       .  A
C639        O644   1.371       .  S
C640        C901   1.409   1_554  A
C641        C900   1.408       .  A
C641        C642   1.395       .  A
C641        H645   1.083       .  S
C642        O646   1.372       .  S
O644        H648   0.992       .  S
O646        H647   0.992       .  S
C649        C910   1.407       .  A
C649        C654   1.409       .  A
C650        C909   1.407       .  A
C650        C651   1.406   1_565  A
C650        H655   1.084       .  S
C652        C913   1.405   1_554  A
C653        C912   1.405       .  A
C653        H657   1.084       .  S
C654        O658   1.371       .  S
O658        H659   0.992       .  S
C661       C1702   1.404   1_455  A
C661       C1966   1.405   1_455  A
C662       C1701   1.404       .  A
C662        C663   1.404       .  A
C662        H667   1.084       .  S
C663        C924   1.414       .  A
C663        O668   1.371       .  S
C664        C923   1.414       .  A
C664        C665   1.408   1_554  A
C665        C666   1.395       .  A
C665        H669   1.083       .  S
C666       C1961   1.404       .  A
C666       O1710   1.372       .  S
O668        H672   0.992       .  S
O670       C1706   1.372       .  S
O670        H671   0.992       .  S
C673        C674   1.402       .  A
C673        C938   1.409   1_554  A
C674        C675   1.394   1_554  A
C674        H679   1.084       .  S
C675        C936   1.412       .  A
C675        O680   1.372       .  S
C676        C935   1.412       .  A
C676        C677   1.408       .  A
C677        C678   1.405       .  A
C677        H681   1.083       .  S
C678        C933   1.409       .  A
C678        O682   1.371       .  S
O680        H684   0.992   1_556  S
O682        H683   0.992       .  S
C685        C686   1.408   1_554  A
C685        C950   1.412   1_554  A
C686        C687   1.407       .  A
C686        H691   1.083   1_556  S
C687       C1988   1.411       .  A
C687       O1732   1.371       .  S
C688       C1987   1.411   1_455  A
C688       C1729   1.402   1_455  A
C689       C1728   1.402       .  A
C689        C690   1.396       .  A
C689        H693   1.083       .  S
C690        C945   1.410       .  A
C690        O694   1.370       .  S
O692       C1727   1.371   1_455  S
O692        H696   0.992   1_556  S
O694        H695   0.992       .  S
C697        C698   1.406       .  A
C697        C962   1.408       .  A
C698        H703   1.084       .  S
C699        C960   1.411       .  A
C699        O704   1.372       .  S
C700        C959   1.412       .  A
C700        C701   1.402       .  A
C701        H705   1.083       .  S
C702        C957   1.410       .  A
C702        O706   1.369       .  S
O704        H708   0.992       .  S
O706        H707   0.992       .  S
C709        C710   1.407       .  A
C709        C714   1.413       .  A
C710        C711   1.407       .  A
C710        H715   1.084       .  S
C711        C712   1.413       .  A
C711        O716   1.372       .  S
C712        C713   1.403       .  A
C713        C714   1.396       .  A
C713        H717   1.083       .  S
C714        O718   1.372       .  S
O716        H720   0.992       .  S
O718        H719   0.992       .  S
C721       C1762   1.410   1_455  A
C721       C1766   1.416   1_455  A
C722       C1761   1.410       .  A
C722        C723   1.403       .  A
C722        H727   1.083       .  S
C723        C724   1.406       .  A
C723        O728   1.372       .  S
C724        C725   1.399       .  A
C725        C726   1.396       .  A
C725        H729   1.084       .  S
C726       C1761   1.416       .  A
C726       O1770   1.371       .  S
O728        H732   0.992       .  S
O730       C1766   1.371   1_455  S
O730       H1771   0.992       .  S
H731       O1770   0.992       .  S
C733        C734   1.406       .  A
C733        C738   1.408       .  A
C734        H739   1.083       .  S
C735        C736   1.412       .  A
C735        O740   1.371       .  S
C737        C738   1.397   1_545  A
C738        O742   1.372       .  S
O740        H744   0.992       .  S
O742        H743   0.992       .  S
C745       C1786   1.404   1_455  A
C745       C1790   1.413   1_455  A
C746       C1785   1.404       .  A
C746        C747   1.392       .  A
C746       H1791   1.082       .  S
C747        C748   1.409       .  A
C747        O752   1.372       .  S
C748        C749   1.405       .  A
C749        C750   1.405       .  A
C749        H753   1.084       .  S
C750       C1785   1.413       .  A
C750        O754   1.372       .  S
H751       C1786   1.083   1_455  S
O752        H756   0.992       .  S
O754        H755   0.992       .  S
C757        C758   1.405       .  A
C757        C762   1.408       .  A
C758        H763   1.084       .  S
C759        C760   1.405       .  A
C759        O764   1.371       .  S
C761        C762   1.398       .  A
C762        O766   1.372       .  S
O764        H768   0.992       .  S
O766        H767   0.992       .  S
C769        C770   1.402       .  A
C769        C774   1.410       .  A
C770        C771   1.396       .  A
C770        H775   1.084       .  S
C771        C772   1.412       .  A
C771        O776   1.372       .  S
C772        C773   1.407       .  A
C773        C774   1.406       .  A
C773        H777   1.083       .  S
C774        O778   1.372       .  S
O776        H780   0.992       .  S
O778        H779   0.992       .  S
C781        N782   1.356       .  A
C781        N786   1.354       .  A
C781       C1020   1.467       .  S
N782        C783   1.360       .  A
C783        N784   1.361       .  A
C783       C1029   1.481       .  S
N784        C785   1.361       .  A
C785        N786   1.356       .  A
C785        C890   1.467       .  S
C787        N788   1.358       .  A
C787        N792   1.356       .  A
C787       C1005   1.483       .  S
N788        C789   1.357       .  A
C789        N790   1.359       .  A
C789       C1032   1.486       .  S
N790        C791   1.362       .  A
C791        N792   1.359       .  A
C791        C826   1.467       .  S
C793        N794   1.356       .  A
C793        N798   1.361       .  A
C793        C996   1.487       .  S
N794        C795   1.355       .  A
C795        N796   1.357       .  A
C795       C1008   1.479       .  S
N796        C797   1.360       .  A
C797        N798   1.364       .  A
C797        C885   1.471       .  S
C799        N800   1.363       .  A
C799        N804   1.357       .  A
C799        C969   1.488       .  S
N800        C801   1.364       .  A
C801        N802   1.360       .  A
C801        C894   1.471       .  S
N802        C803   1.354       .  A
C803        N804   1.355       .  A
C803        C984   1.473       .  S
C805        N806   1.358       .  A
C805        N810   1.358       .  A
C805        C993   1.482       .  S
N806        C807   1.360       .  A
C807        N808   1.361       .  A
C807        C835   1.469       .  S
N808        C809   1.359       .  A
C809        N810   1.359       .  A
C809        C972   1.487       .  S
C811        N812   1.355       .  A
C811        N816   1.356       .  A
C811       C1017   1.474       .  S
N812        C813   1.357       .  A
C813        N814   1.361       .  A
C813        C838   1.468       .  S
N814        C815   1.362       .  A
C815        N816   1.359       .  A
C815        C981   1.490       .  S
Fe817       O833   2.066       .  S
Fe817       O823   2.065       .  S
Fe817       O830   2.065       .  S
Fe817       O822   2.065       .  S
Fe817       O828   1.981       .  S
Fe818       O821   2.065       .  S
Fe818       O825   2.060       .  S
Fe818       O829   2.059       .  S
Fe818       O834   2.061       .  S
Fe818       O828   1.980       .  S
Fe819       O837   2.061       .  S
Fe819       O824   2.057       .  S
Fe819       O831   2.058       .  S
Fe819       O820   2.059       .  S
Fe819       O828   1.980       .  S
O820        C827   1.267       .  A
O821        C835   1.268       .  A
O822        C827   1.268       .  A
O823        C826   1.269       .  A
O824        C836   1.267       .  A
O825        C838   1.268       .  A
C826        O831   1.267       .  A
C827        C873   1.468       .  S
O829        C832   1.267       .  A
O830        C832   1.269       .  A
C832        C859   1.467       .  S
O833        C838   1.268       .  A
O834        C836   1.268       .  A
C835        O837   1.267       .  A
C836        C847   1.465       .  S
C839        N840   1.358       .  A
C839        N844   1.358       .  A
C839        C957   1.485       .  S
N840        C841   1.358       .  A
C841        N842   1.360       .  A
C841        C945   1.486       .  S
N842        C843   1.362       .  A
C843        N844   1.360       .  A
C843        C884   1.472       .  S
C845        N846   1.357       .  A
C845        N850   1.357       .  A
C845        C960   1.480       .  S
N846        C847   1.360       .  A
C847        N848   1.361       .  A
N848        C849   1.357       .  A
C849        N850   1.356       .  A
C849        C936   1.484       .  S
C851        N852   1.360       .  A
C851        N856   1.356       .  A
C851        C924   1.488       .  S
N852        C853   1.362       .  A
C853        N854   1.362       .  A
C853        C893   1.471       .  S
N854        C855   1.358       .  A
C855        N856   1.354       .  A
C855        C933   1.479       .  S
C857        N858   1.356       .  A
C857        N862   1.358       .  A
C857        C921   1.474       .  S
N858        C859   1.358       .  A
C859        N860   1.361       .  A
N860        C861   1.359       .  A
C861        N862   1.359       .  A
C861        C909   1.483       .  S
C863        N864   1.356       .  A
C863        N868   1.359       .  A
C863        C912   1.485       .  S
N864        C865   1.356       .  A
C865        N866   1.359       .  A
C865        C900   1.490       .  S
N866        C867   1.362       .  A
C867        N868   1.362       .  A
C867        C896   1.471       .  S
C869        N870   1.358       .  A
C869        N874   1.359       .  A
C869        C948   1.480       .  S
N870        C871   1.356       .  A
C871        N872   1.356       .  A
C871        C897   1.474       .  S
N872        C873   1.360       .  A
C873        N874   1.361       .  A
Fe875       O891   2.064       .  S
Fe875       O881   2.065       .  S
Fe875       O888   2.062       .  S
Fe875       O880   2.065       .  S
Fe875       O886   1.981       .  S
Fe876       O879   2.063       .  S
Fe876       O883   2.069       .  S
Fe876       O887   2.061       .  S
Fe876       O892   2.071       .  S
Fe876       O886   1.985       .  S
Fe877       O895   2.069       .  S
Fe877       O882   2.061       .  S
Fe877       O889   2.067       .  S
Fe877       O878   2.069       .  S
Fe877       O886   1.979       .  S
O878        C885   1.270       .  A
O879        C893   1.268       .  A
O880        C885   1.268       .  A
O881        C884   1.269       .  A
O882        C894   1.269       .  A
O883        C896   1.270       .  A
C884        O889   1.268       .  A
O887        C890   1.267       .  A
O888        C890   1.268       .  A
O891        C896   1.268       .  A
O892        C894   1.268       .  A
C893        O895   1.269       .  A
C897        C898   1.403       .  A
C897        C902   1.404       .  A
C898        H903   1.084   1_556  S
C899        C900   1.415       .  A
C899        O904   1.371       .  S
C901        C902   1.395       .  A
C901        H905   1.083       .  S
C902        O906   1.372       .  S
O904        H908   0.992       .  S
O906        H907   0.992       .  S
C909        C914   1.409       .  A
C910        C911   1.406   1_565  A
C910        H915   1.084       .  S
C913        H917   1.084       .  S
C914        O918   1.371       .  S
O918        H919   0.992       .  S
C921       C1962   1.403   1_455  A
C921       C1706   1.405   1_455  A
C922       C1961   1.403   1_554  A
C922        C923   1.404       .  A
C922        H927   1.084       .  S
C923        O928   1.371       .  S
C924        C925   1.408       .  A
C925        C926   1.395       .  A
C925        H929   1.083       .  S
C926       C1701   1.404       .  A
C926       O1970   1.372       .  S
O928        H932   0.992       .  S
O930       C1966   1.372       .  S
O930        H931   0.992       .  S
C933        C934   1.402       .  A
C934        C935   1.394       .  A
C934        H939   1.084       .  S
C935        O940   1.372       .  S
C936        C937   1.408       .  A
C937        C938   1.405       .  A
C937        H941   1.083       .  S
C938        O942   1.371       .  S
O940        H944   0.992       .  S
O942        H943   0.992       .  S
C945        C946   1.407       .  A
C946        C947   1.407       .  A
C946        H951   1.083       .  S
C947       C1728   1.412       .  A
C947       O1992   1.371       .  S
C948       C1727   1.409   1_455  A
C948       C1989   1.400   1_455  A
C949       C1988   1.401       .  A
C949        C950   1.395       .  A
C949        H953   1.084       .  S
C950        O954   1.369   1_556  S
O952       C1987   1.371   1_455  S
O952        H956   0.992       .  S
O954        H955   0.992   1_554  S
C957        C958   1.409       .  A
C958        H963   1.083       .  S
C959        O964   1.372       .  S
C960        C961   1.402       .  A
C961        H965   1.083       .  S
C962        O966   1.371       .  S
O964        H968   0.992       .  S
O966        H967   0.992   1_554  S
C969        C970   1.407       .  A
C969        C974   1.413       .  A
C970        C971   1.407       .  A
C970        H975   1.084       .  S
C971        C972   1.413       .  A
C971        O976   1.372       .  S
C972        C973   1.403       .  A
C973        C974   1.396       .  A
C973        H977   1.083       .  S
C974        O978   1.372       .  S
O976        H980   0.992       .  S
O978        H979   0.992       .  S
C981       C2022   1.410   1_455  A
C981       C2026   1.416   1_455  A
C982       C2021   1.410       .  A
C982        C983   1.404       .  A
C982        H987   1.083       .  S
C983        C984   1.406       .  A
C983        O988   1.372       .  S
C984        C985   1.399       .  A
C985        C986   1.396       .  A
C985        H989   1.084       .  S
C986       C2021   1.416       .  A
C986       O2030   1.371       .  S
O988        H992   0.992       .  S
O990       C2026   1.371   1_455  S
O990       H2031   0.992       .  S
H991       O2030   0.992       .  S
C993        C994   1.406       .  A
C993        C998   1.408       .  A
C994        H999   1.083       .  S
C995        C996   1.412       .  A
C995       O1000   1.371       .  S
C997        C998   1.396   1_545  A
C998       O1002   1.372       .  S
O1000      H1004   0.992       .  S
O1002      H1003   0.992       .  S
C1005      C2046   1.403   1_455  A
C1005      C2050   1.413   1_455  A
C1006      C2045   1.403       .  A
C1006      C1007   1.392       .  A
C1006      H2051   1.083       .  S
C1007      C1008   1.410       .  A
C1007      O1012   1.372       .  S
C1008      C1009   1.405       .  A
C1009      C1010   1.405       .  A
C1009      H1013   1.084       .  S
C1010      C2045   1.412       .  A
C1010      O1014   1.372       .  S
H1011      C2046   1.083   1_455  S
O1012      H1016   0.992       .  S
O1014      H1015   0.992       .  S
C1017      C1018   1.405       .  A
C1017      C1022   1.408       .  A
C1018      H1023   1.084       .  S
C1019      C1020   1.405       .  A
C1019      O1024   1.371       .  S
C1021      C1022   1.398       .  A
C1022      O1026   1.372       .  S
O1024      H1028   0.992       .  S
O1026      H1027   0.992       .  S
C1029      C1030   1.402       .  A
C1029      C1034   1.410       .  A
C1030      C1031   1.396       .  A
C1030      H1035   1.084       .  S
C1031      C1032   1.412       .  A
C1031      O1036   1.372       .  S
C1032      C1033   1.407       .  A
C1033      C1034   1.406       .  A
C1033      H1037   1.083       .  S
C1034      O1038   1.372       .  S
O1036      H1040   0.992       .  S
O1038      H1039   0.992       .  S
C1041      N1042   1.356       .  A
C1041      N1046   1.354       .  A
C1041      C1280   1.467       .  S
N1042      C1043   1.361       .  A
C1043      N1044   1.360       .  A
C1043      C1289   1.481       .  S
N1044      C1045   1.360       .  A
C1045      N1046   1.356       .  A
C1045      C1150   1.466       .  S
C1047      N1048   1.357       .  A
C1047      N1052   1.357       .  A
C1047      C1265   1.482       .  S
N1048      C1049   1.356       .  A
C1049      N1050   1.359       .  A
C1049      C1292   1.486       .  S
N1050      C1051   1.362       .  A
C1051      N1052   1.359       .  A
C1051      C1086   1.467       .  S
C1053      N1054   1.356       .  A
C1053      N1058   1.360       .  A
C1053      C1256   1.487       .  S
N1054      C1055   1.355       .  A
C1055      N1056   1.357       .  A
C1055      C1268   1.478       .  S
N1056      C1057   1.360       .  A
C1057      N1058   1.363       .  A
C1057      C1145   1.472       .  S
C1059      N1060   1.362       .  A
C1059      N1064   1.358       .  A
C1059      C1229   1.486       .  S
N1060      C1061   1.364       .  A
C1061      N1062   1.359       .  A
C1061      C1154   1.470       .  S
N1062      C1063   1.354       .  A
C1063      N1064   1.355       .  A
C1063      C1244   1.472       .  S
C1065      N1066   1.358       .  A
C1065      N1070   1.358       .  A
C1065      C1253   1.482       .  S
N1066      C1067   1.360       .  A
C1067      N1068   1.361       .  A
C1067      C1095   1.468       .  S
N1068      C1069   1.358       .  A
C1069      N1070   1.359       .  A
C1069      C1232   1.486       .  S
C1071      N1072   1.355       .  A
C1071      N1076   1.356       .  A
C1071      C1277   1.474       .  S
N1072      C1073   1.358       .  A
C1073      N1074   1.360       .  A
C1073      C1098   1.469       .  S
N1074      C1075   1.362       .  A
C1075      N1076   1.359       .  A
C1075      C1241   1.490       .  S
Fe1077     O1093   2.069       .  S
Fe1077     O1083   2.066       .  S
Fe1077     O1090   2.067       .  S
Fe1077     O1082   2.067       .  S
Fe1077     O1088   1.982       .  S
Fe1078     O1081   2.064       .  S
Fe1078     O1085   2.060       .  S
Fe1078     O1089   2.057       .  S
Fe1078     O1094   2.063       .  S
Fe1078     O1088   1.979       .  S
Fe1079     O1097   2.058       .  S
Fe1079     O1084   2.057       .  S
Fe1079     O1091   2.057       .  S
Fe1079     O1080   2.055       .  S
Fe1079     O1088   1.980       .  S
O1080      C1087   1.267       .  A
O1081      C1095   1.268       .  A
O1082      C1087   1.269       .  A
O1083      C1086   1.269       .  A
O1084      C1096   1.267       .  A
O1085      C1098   1.269       .  A
C1086      O1091   1.267       .  A
C1087      C1133   1.466       .  S
O1089      C1092   1.267       .  A
O1090      C1092   1.269       .  A
C1092      C1119   1.468       .  S
O1093      C1098   1.269       .  A
O1094      C1096   1.268       .  A
C1095      O1097   1.267       .  A
C1096      C1107   1.466       .  S
C1099      N1100   1.355       .  A
C1099      N1104   1.354       .  A
C1099      C1217   1.474       .  S
N1100      C1101   1.357       .  A
C1101      N1102   1.363       .  A
C1101      C1205   1.491       .  S
N1102      C1103   1.363       .  A
C1103      N1104   1.359       .  A
C1103      C1144   1.470       .  S
C1105      N1106   1.358       .  A
C1105      N1110   1.358       .  A
C1105      C1220   1.488       .  S
N1106      C1107   1.360       .  A
C1107      N1108   1.360       .  A
N1108      C1109   1.357       .  A
C1109      N1110   1.357       .  A
C1109      C1196   1.483       .  S
C1111      N1112   1.359       .  A
C1111      N1116   1.356       .  A
C1111      C1184   1.488       .  S
N1112      C1113   1.361       .  A
C1113      N1114   1.361       .  A
C1113      C1153   1.470       .  S
N1114      C1115   1.357       .  A
C1115      N1116   1.355       .  A
C1115      C1193   1.477       .  S
C1117      N1118   1.358       .  A
C1117      N1122   1.359       .  A
C1117      C1181   1.479       .  S
N1118      C1119   1.359       .  A
C1119      N1120   1.360       .  A
N1120      C1121   1.357       .  A
C1121      N1122   1.358       .  A
C1121      C1169   1.480       .  S
C1123      N1124   1.356       .  A
C1123      N1128   1.358       .  A
C1123      C1172   1.482       .  S
N1124      C1125   1.356       .  A
C1125      N1126   1.358       .  A
C1125      C1160   1.489   1_554  S
N1126      C1127   1.360       .  A
C1127      N1128   1.361       .  A
C1127      C1156   1.468       .  S
C1129      N1130   1.359       .  A
C1129      N1134   1.359       .  A
C1129      C1208   1.487       .  S
N1130      C1131   1.355       .  A
C1131      N1132   1.355       .  A
C1131      C1157   1.472       .  S
N1132      C1133   1.360       .  A
C1133      N1134   1.361       .  A
Fe1135     O1151   2.061       .  S
Fe1135     O1141   2.060       .  S
Fe1135     O1148   2.059       .  S
Fe1135     O1140   2.063       .  S
Fe1135     O1146   1.979       .  S
Fe1136     O1139   2.060       .  S
Fe1136     O1143   2.065       .  S
Fe1136     O1147   2.062       .  S
Fe1136     O1152   2.068       .  S
Fe1136     O1146   1.984       .  S
Fe1137     O1155   2.069       .  S
Fe1137     O1142   2.061       .  S
Fe1137     O1149   2.068       .  S
Fe1137     O1138   2.071       .  S
Fe1137     O1146   1.980       .  S
O1138      C1145   1.270       .  A
O1139      C1153   1.268       .  A
O1140      C1145   1.268       .  A
O1141      C1144   1.268       .  A
O1142      C1154   1.269       .  A
O1143      C1156   1.269       .  A
C1144      O1149   1.268       .  A
O1147      C1150   1.267       .  A
O1148      C1150   1.268       .  A
O1151      C1156   1.268       .  A
O1152      C1154   1.268       .  A
C1153      O1155   1.269       .  A
C1157      C1158   1.402       .  A
C1157      C1162   1.404       .  A
C1158      C1419   1.405       .  A
C1158      H1163   1.084       .  S
C1159      C1418   1.405   1_554  A
C1159      C1160   1.415   1_554  A
C1159      O1164   1.371       .  S
C1160      C1421   1.408       .  A
C1161      C1420   1.408       .  A
C1161      C1162   1.395       .  A
C1161      H1165   1.083       .  S
C1162      O1166   1.372       .  S
O1164      H1168   0.992       .  S
O1166      H1167   0.992       .  S
C1169      C1430   1.406       .  A
C1169      C1174   1.407       .  A
C1170      C1429   1.406       .  A
C1170      C1171   1.406   1_556  A
C1170      H1175   1.084       .  S
C1171      C1692   1.411       .  A
C1171      O1696   1.371       .  S
C1172      C1691   1.410       .  A
C1172      C1433   1.404   1_554  A
C1173      C1432   1.405       .  A
C1173      C1694   1.394   1_545  A
C1173      H1177   1.084       .  S
C1174      C1693   1.395       .  A
C1174      O1178   1.371       .  S
O1176      C1691   1.372       .  S
O1176      H1700   0.992       .  S
O1178      H1179   0.992       .  S
H1180      O1696   0.992       .  S
C1182      C1183   1.404       .  A
C1182      H1187   1.084   1_655  S
C1183      C1444   1.413       .  A
C1183      O1188   1.371       .  S
C1184      C1443   1.414       .  A
C1184      C1185   1.408   1_554  A
C1185      C1186   1.396       .  A
C1185      H1189   1.083       .  S
O1188      H1192   0.992       .  S
O1190      H1191   0.992       .  S
C1193      C1194   1.402       .  A
C1193      C1458   1.409   1_554  A
C1194      C1195   1.394   1_554  A
C1194      H1199   1.084       .  S
C1195      C1456   1.411       .  A
C1195      O1200   1.372       .  S
C1196      C1455   1.411       .  A
C1196      C1197   1.408       .  A
C1197      C1198   1.405       .  A
C1197      H1201   1.083       .  S
C1198      C1453   1.409       .  A
C1198      O1202   1.371       .  S
O1200      H1204   0.992   1_556  S
O1202      H1203   0.992       .  S
C1205      C1206   1.409       .  A
C1205      C1470   1.416   1_554  A
C1206      C1207   1.405   1_554  A
C1206      H1211   1.083       .  S
C1209      C1210   1.396       .  A
C1209      H1213   1.084       .  S
C1210      C1465   1.416       .  A
C1210      O1214   1.370       .  S
O1212      H1216   0.992       .  S
O1214      H1215   0.992       .  S
C1217      C1218   1.404       .  A
C1217      C1482   1.406   1_545  A
C1218      C1739   1.405   1_544  A
C1218      H1223   1.084   1_554  S
C1219      C1738   1.405   1_556  A
C1219      C1480   1.414       .  A
C1219      O1224   1.372       .  S
C1220      C1479   1.415       .  A
C1220      C1221   1.406       .  A
C1221      C1742   1.396       .  A
C1221      H1225   1.082       .  S
C1222      C1477   1.405   1_565  A
C1222      C1741   1.395       .  A
C1222      O1226   1.373   1_565  S
O1224      H1228   0.992       .  S
O1226      H1227   0.992       .  S
C1229      C1230   1.407       .  A
C1229      C1234   1.412       .  A
C1230      C1231   1.407       .  A
C1230      H1235   1.084       .  S
C1231      C1232   1.413       .  A
C1231      O1236   1.372       .  S
C1232      C1233   1.403       .  A
C1233      C1234   1.395       .  A
C1233      H1237   1.083       .  S
C1234      O1238   1.372       .  S
O1236      H1240   0.992       .  S
O1238      H1239   0.992       .  S
C1242      C1243   1.403       .  A
C1242      H1247   1.083   1_655  S
C1243      C1244   1.406       .  A
C1243      O1248   1.372       .  S
C1244      C1245   1.399       .  A
C1245      C1246   1.396       .  A
C1245      H1249   1.084       .  S
O1248      H1252   0.992       .  S
C1253      C1254   1.406       .  A
C1253      C1258   1.409       .  A
C1254      C1775   1.406       .  A
C1254      H1259   1.083       .  S
C1255      C1774   1.405   1_545  A
C1255      C1256   1.412       .  A
C1255      O1260   1.371       .  S
C1256      C1777   1.406       .  A
C1257      C1776   1.406       .  A
C1257      C1258   1.396       .  A
C1257      H1781   1.083       .  S
C1258      O1262   1.372       .  S
O1260      H1264   0.992       .  S
H1261      C1777   1.083       .  S
O1262      H1263   0.992       .  S
C1266      C1267   1.392       .  A
C1267      C1268   1.410       .  A
C1267      O1272   1.372       .  S
C1268      C1269   1.405       .  A
C1269      C1270   1.405       .  A
C1269      H1273   1.084       .  S
C1270      O1274   1.372   1_655  S
O1272      H1276   0.992       .  S
O1274      H1275   0.992       .  S
C1277      C1278   1.405       .  A
C1277      C1282   1.407       .  A
C1278      C1799   1.401       .  A
C1278      H1283   1.084       .  S
C1279      C1798   1.400   1_545  A
C1279      C1280   1.405       .  A
C1279      O1284   1.372       .  S
C1280      C1801   1.402   1_545  A
C1281      C1800   1.402       .  A
C1281      C1282   1.399       .  A
C1281      H1805   1.084       .  S
C1282      O1286   1.372       .  S
O1284      H1288   0.992       .  S
H1285      C1801   1.084   1_545  S
O1286      H1287   0.992       .  S
C1289      C1290   1.402       .  A
C1289      C1294   1.410       .  A
C1290      C1291   1.397       .  A
C1290      H1295   1.084       .  S
C1291      C1292   1.413       .  A
C1291      O1296   1.372       .  S
C1292      C1293   1.407       .  A
C1293      C1294   1.405       .  A
C1293      H1297   1.083       .  S
C1294      O1298   1.372       .  S
O1296      H1300   0.992       .  S
O1298      H1299   0.992       .  S
C1301      N1302   1.357       .  A
C1301      N1306   1.354       .  A
C1301      C1540   1.468       .  S
N1302      C1303   1.361       .  A
C1303      N1304   1.360       .  A
C1303      C1549   1.481       .  S
N1304      C1305   1.360       .  A
C1305      N1306   1.356       .  A
C1305      C1410   1.467       .  S
C1307      N1308   1.357       .  A
C1307      N1312   1.357       .  A
C1307      C1525   1.482       .  S
N1308      C1309   1.356       .  A
C1309      N1310   1.359       .  A
C1309      C1552   1.486       .  S
N1310      C1311   1.362       .  A
C1311      N1312   1.360       .  A
C1311      C1346   1.467       .  S
C1313      N1314   1.355       .  A
C1313      N1318   1.361       .  A
C1313      C1516   1.487       .  S
N1314      C1315   1.355       .  A
C1315      N1316   1.357       .  A
C1315      C1528   1.479       .  S
N1316      C1317   1.361       .  A
C1317      N1318   1.364       .  A
C1317      C1405   1.472       .  S
C1319      N1320   1.362       .  A
C1319      N1324   1.357       .  A
C1319      C1489   1.486       .  S
N1320      C1321   1.364       .  A
C1321      N1322   1.359       .  A
C1321      C1414   1.471       .  S
N1322      C1323   1.354       .  A
C1323      N1324   1.355       .  A
C1323      C1504   1.473       .  S
C1325      N1326   1.357       .  A
C1325      N1330   1.358       .  A
C1325      C1513   1.481       .  S
N1326      C1327   1.360       .  A
C1327      N1328   1.361       .  A
C1327      C1355   1.467       .  S
N1328      C1329   1.358       .  A
C1329      N1330   1.359       .  A
C1329      C1492   1.487       .  S
C1331      N1332   1.355       .  A
C1331      N1336   1.356       .  A
C1331      C1537   1.473       .  S
N1332      C1333   1.357       .  A
C1333      N1334   1.361       .  A
C1333      C1358   1.469       .  S
N1334      C1335   1.362       .  A
C1335      N1336   1.359       .  A
C1335      C1501   1.491       .  S
Fe1337     O1353   2.069       .  S
Fe1337     O1343   2.065       .  S
Fe1337     O1350   2.066       .  S
Fe1337     O1342   2.067       .  S
Fe1337     O1348   1.981       .  S
Fe1338     O1341   2.065       .  S
Fe1338     O1345   2.060       .  S
Fe1338     O1349   2.058       .  S
Fe1338     O1354   2.062       .  S
Fe1338     O1348   1.980       .  S
Fe1339     O1357   2.057       .  S
Fe1339     O1344   2.058       .  S
Fe1339     O1351   2.058       .  S
Fe1339     O1340   2.054       .  S
Fe1339     O1348   1.980       .  S
O1340      C1347   1.266       .  A
O1341      C1355   1.268       .  A
O1342      C1347   1.269       .  A
O1343      C1346   1.269       .  A
O1344      C1356   1.267       .  A
O1345      C1358   1.269       .  A
C1346      O1351   1.267       .  A
C1347      C1393   1.466       .  S
O1349      C1352   1.267       .  A
O1350      C1352   1.269       .  A
C1352      C1379   1.468       .  S
O1353      C1358   1.269       .  A
O1354      C1356   1.268       .  A
C1355      O1357   1.266       .  A
C1356      C1367   1.465       .  S
C1359      N1360   1.355       .  A
C1359      N1364   1.354       .  A
C1359      C1477   1.474       .  S
N1360      C1361   1.357       .  A
C1361      N1362   1.363       .  A
C1361      C1465   1.491       .  S
N1362      C1363   1.363       .  A
C1363      N1364   1.359       .  A
C1363      C1404   1.470       .  S
C1365      N1366   1.358       .  A
C1365      N1370   1.358       .  A
C1365      C1480   1.486       .  S
N1366      C1367   1.360       .  A
C1367      N1368   1.360       .  A
N1368      C1369   1.357       .  A
C1369      N1370   1.356       .  A
C1369      C1456   1.484       .  S
C1371      N1372   1.360       .  A
C1371      N1376   1.356       .  A
C1371      C1444   1.488       .  S
N1372      C1373   1.362       .  A
C1373      N1374   1.362       .  A
C1373      C1413   1.471       .  S
N1374      C1375   1.358       .  A
C1375      N1376   1.355       .  A
C1375      C1453   1.479       .  S
C1377      N1378   1.357       .  A
C1377      N1382   1.358       .  A
C1377      C1441   1.477       .  S
N1378      C1379   1.359       .  A
C1379      N1380   1.361       .  A
N1380      C1381   1.358       .  A
C1381      N1382   1.359       .  A
C1381      C1429   1.482       .  S
C1383      N1384   1.356       .  A
C1383      N1388   1.359       .  A
C1383      C1432   1.483       .  S
N1384      C1385   1.356       .  A
C1385      N1386   1.358       .  A
C1385      C1420   1.489       .  S
N1386      C1387   1.361       .  A
C1387      N1388   1.362       .  A
C1387      C1416   1.469       .  S
C1389      N1390   1.359       .  A
C1389      N1394   1.359       .  A
C1389      C1468   1.489       .  S
N1390      C1391   1.355       .  A
C1391      N1392   1.355       .  A
C1391      C1417   1.472       .  S
N1392      C1393   1.360       .  A
C1393      N1394   1.360       .  A
Fe1395     O1411   2.063       .  S
Fe1395     O1401   2.060       .  S
Fe1395     O1408   2.059       .  S
Fe1395     O1400   2.064       .  S
Fe1395     O1406   1.980       .  S
Fe1396     O1399   2.062       .  S
Fe1396     O1403   2.065       .  S
Fe1396     O1407   2.063       .  S
Fe1396     O1412   2.069       .  S
Fe1396     O1406   1.984       .  S
Fe1397     O1415   2.070       .  S
Fe1397     O1402   2.062       .  S
Fe1397     O1409   2.068       .  S
Fe1397     O1398   2.072       .  S
Fe1397     O1406   1.980       .  S
O1398      C1405   1.271       .  A
O1399      C1413   1.268       .  A
O1400      C1405   1.268       .  A
O1401      C1404   1.268       .  A
O1402      C1414   1.269       .  A
O1403      C1416   1.269       .  A
C1404      O1409   1.268       .  A
O1407      C1410   1.267       .  A
O1408      C1410   1.268       .  A
O1411      C1416   1.268       .  A
O1412      C1414   1.268       .  A
C1413      O1415   1.269       .  A
C1417      C1418   1.402       .  A
C1417      C1422   1.404       .  A
C1418      H1423   1.084   1_556  S
C1419      C1420   1.416       .  A
C1419      O1424   1.371       .  S
C1421      C1422   1.395       .  A
C1421      H1425   1.083       .  S
C1422      O1426   1.372       .  S
O1424      H1428   0.992       .  S
O1426      H1427   0.992       .  S
C1429      C1434   1.408       .  A
C1430      C1431   1.406       .  A
C1430      H1435   1.084       .  S
C1431      C1952   1.412       .  A
C1431      O1956   1.371       .  S
C1432      C1951   1.411       .  A
C1433      C1954   1.394   1_545  A
C1433      H1437   1.084       .  S
C1434      C1953   1.395       .  A
C1434      O1438   1.371       .  S
O1436      C1951   1.371       .  S
O1436      H1960   0.992       .  S
O1438      H1439   0.992       .  S
H1440      O1956   0.992       .  S
C1442      C1443   1.404   1_556  A
C1442      H1447   1.084   1_656  S
C1443      O1448   1.371       .  S
C1444      C1445   1.408       .  A
C1445      C1446   1.395       .  A
C1445      H1449   1.083       .  S
O1448      H1452   0.992       .  S
O1450      H1451   0.992       .  S
C1453      C1454   1.402       .  A
C1454      C1455   1.394       .  A
C1454      H1459   1.084       .  S
C1455      O1460   1.372       .  S
C1456      C1457   1.408       .  A
C1457      C1458   1.405       .  A
C1457      H1461   1.083       .  S
C1458      O1462   1.371       .  S
O1460      H1464   0.992       .  S
O1462      H1463   0.992       .  S
C1465      C1466   1.409       .  A
C1466      C1467   1.405       .  A
C1466      H1471   1.083       .  S
C1469      C1470   1.396       .  A
C1469      H1473   1.084       .  S
C1470      O1474   1.370       .  S
O1472      H1476   0.992       .  S
O1474      H1475   0.992       .  S
C1477      C1478   1.404       .  A
C1478      C1999   1.405   1_545  A
C1478      H1483   1.084       .  S
C1479      C1998   1.405       .  A
C1479      O1484   1.372       .  S
C1480      C1481   1.405   1_556  A
C1481      C2002   1.395       .  A
C1481      H1485   1.082       .  S
C1482      C2001   1.395       .  A
C1482      O1486   1.373   1_565  S
O1484      H1488   0.992       .  S
O1486      H1487   0.992       .  S
C1489      C1490   1.406       .  A
C1489      C1494   1.412       .  A
C1490      C1491   1.407       .  A
C1490      H1495   1.084       .  S
C1491      C1492   1.413       .  A
C1491      O1496   1.372       .  S
C1492      C1493   1.403       .  A
C1493      C1494   1.395       .  A
C1493      H1497   1.083       .  S
C1494      O1498   1.372       .  S
O1496      H1500   0.992       .  S
O1498      H1499   0.992       .  S
C1502      C1503   1.403       .  A
C1502      H1507   1.083   1_655  S
C1503      C1504   1.406       .  A
C1503      O1508   1.372       .  S
C1504      C1505   1.400       .  A
C1505      C1506   1.396       .  A
C1505      H1509   1.084       .  S
O1508      H1512   0.992       .  S
C1513      C1514   1.406       .  A
C1513      C1518   1.408       .  A
C1514      C2035   1.405       .  A
C1514      H1519   1.083       .  S
C1515      C2034   1.405   1_545  A
C1515      C1516   1.411       .  A
C1515      O1520   1.371       .  S
C1516      C2037   1.407       .  A
C1517      C2036   1.406       .  A
C1517      C1518   1.396       .  A
C1517      H2041   1.083       .  S
C1518      O1522   1.372       .  S
O1520      H1524   0.992       .  S
H1521      C2037   1.083       .  S
O1522      H1523   0.992       .  S
C1526      C1527   1.392       .  A
C1527      C1528   1.410       .  A
C1527      O1532   1.372       .  S
C1528      C1529   1.405       .  A
C1529      C1530   1.405       .  A
C1529      H1533   1.084       .  S
C1530      O1534   1.372   1_655  S
O1532      H1536   0.992       .  S
O1534      H1535   0.992       .  S
C1537      C1538   1.405       .  A
C1537      C1542   1.407       .  A
C1538      C2059   1.401       .  A
C1538      H1543   1.084       .  S
C1539      C2058   1.400   1_545  A
C1539      C1540   1.405       .  A
C1539      O1544   1.371       .  S
C1540      C2061   1.402   1_545  A
C1541      C2060   1.402       .  A
C1541      C1542   1.399       .  A
C1541      H2065   1.084       .  S
C1542      O1546   1.372       .  S
O1544      H1548   0.992       .  S
H1545      C2061   1.084   1_545  S
O1546      H1547   0.992       .  S
C1549      C1550   1.402       .  A
C1549      C1554   1.410       .  A
C1550      C1551   1.397       .  A
C1550      H1555   1.084       .  S
C1551      C1552   1.413       .  A
C1551      O1556   1.372       .  S
C1552      C1553   1.407       .  A
C1553      C1554   1.405       .  A
C1553      H1557   1.083       .  S
C1554      O1558   1.372       .  S
O1556      H1560   0.992       .  S
O1558      H1559   0.992       .  S
C1561      N1562   1.357       .  A
C1561      N1566   1.354       .  A
C1561      C1800   1.469       .  S
N1562      C1563   1.361       .  A
C1563      N1564   1.360       .  A
C1563      C1809   1.481       .  S
N1564      C1565   1.360       .  A
C1565      N1566   1.357       .  A
C1565      C1670   1.467       .  S
C1567      N1568   1.357       .  A
C1567      N1572   1.357       .  A
C1567      C1785   1.483       .  S
N1568      C1569   1.356       .  A
C1569      N1570   1.358       .  A
C1569      C1812   1.485       .  S
N1570      C1571   1.362       .  A
C1571      N1572   1.360       .  A
C1571      C1606   1.467       .  S
C1573      N1574   1.356       .  A
C1573      N1578   1.361       .  A
C1573      C1776   1.487       .  S
N1574      C1575   1.355       .  A
C1575      N1576   1.357       .  A
C1575      C1788   1.478       .  S
N1576      C1577   1.360       .  A
C1577      N1578   1.363       .  A
C1577      C1665   1.471       .  S
C1579      N1580   1.362       .  A
C1579      N1584   1.357       .  A
C1579      C1749   1.485       .  S
N1580      C1581   1.363       .  A
C1581      N1582   1.359       .  A
C1581      C1674   1.470       .  S
N1582      C1583   1.354       .  A
C1583      N1584   1.355       .  A
C1583      C1764   1.472       .  S
C1585      N1586   1.358       .  A
C1585      N1590   1.358       .  A
C1585      C1773   1.482       .  S
N1586      C1587   1.360       .  A
C1587      N1588   1.361       .  A
C1587      C1615   1.467       .  S
N1588      C1589   1.358       .  A
C1589      N1590   1.359       .  A
C1589      C1752   1.487       .  S
C1591      N1592   1.354       .  A
C1591      N1596   1.356       .  A
C1591      C1797   1.471       .  S
N1592      C1593   1.357       .  A
C1593      N1594   1.360       .  A
C1593      C1618   1.467       .  S
N1594      C1595   1.361       .  A
C1595      N1596   1.359       .  A
C1595      C1761   1.490       .  S
Fe1597     O1613   2.065       .  S
Fe1597     O1603   2.065       .  S
Fe1597     O1610   2.064       .  S
Fe1597     O1602   2.064       .  S
Fe1597     O1608   1.981       .  S
Fe1598     O1601   2.065       .  S
Fe1598     O1605   2.059       .  S
Fe1598     O1609   2.059       .  S
Fe1598     O1614   2.062       .  S
Fe1598     O1608   1.980       .  S
Fe1599     O1617   2.057       .  S
Fe1599     O1604   2.056       .  S
Fe1599     O1611   2.057       .  S
Fe1599     O1600   2.055       .  S
Fe1599     O1608   1.979       .  S
O1600      C1607   1.267       .  A
O1601      C1615   1.268       .  A
O1602      C1607   1.268       .  A
O1603      C1606   1.269       .  A
O1604      C1616   1.267       .  A
O1605      C1618   1.269       .  A
C1606      O1611   1.267       .  A
C1607      C1653   1.466       .  S
O1609      C1612   1.267       .  A
O1610      C1612   1.269       .  A
C1612      C1639   1.467       .  S
O1613      C1618   1.268       .  A
O1614      C1616   1.268       .  A
C1615      O1617   1.267       .  A
C1616      C1627   1.465       .  S
C1619      N1620   1.356       .  A
C1619      N1624   1.354       .  A
C1619      C1737   1.474       .  S
N1620      C1621   1.358       .  A
C1621      N1622   1.362       .  A
C1621      C1725   1.491       .  S
N1622      C1623   1.363       .  A
C1623      N1624   1.359       .  A
C1623      C1664   1.470       .  S
C1625      N1626   1.358       .  A
C1625      N1630   1.358       .  A
C1625      C1740   1.485       .  S
N1626      C1627   1.359       .  A
C1627      N1628   1.360       .  A
N1628      C1629   1.357       .  A
C1629      N1630   1.357       .  A
C1629      C1716   1.484       .  S
C1631      N1632   1.360       .  A
C1631      N1636   1.356       .  A
C1631      C1704   1.488       .  S
N1632      C1633   1.362       .  A
C1633      N1634   1.361       .  A
C1633      C1673   1.470       .  S
N1634      C1635   1.357       .  A
C1635      N1636   1.355       .  A
C1635      C1713   1.477       .  S
C1637      N1638   1.356       .  A
C1637      N1642   1.358       .  A
C1637      C1701   1.474       .  S
N1638      C1639   1.358       .  A
C1639      N1640   1.361       .  A
N1640      C1641   1.358       .  A
C1641      N1642   1.358       .  A
C1641      C1689   1.481       .  S
C1643      N1644   1.356       .  A
C1643      N1648   1.359       .  A
C1643      C1692   1.485       .  S
N1644      C1645   1.356       .  A
C1645      N1646   1.359       .  A
C1645      C1680   1.490       .  S
N1646      C1647   1.361       .  A
C1647      N1648   1.362       .  A
C1647      C1676   1.471       .  S
C1649      N1650   1.358       .  A
C1649      N1654   1.359       .  A
C1649      C1728   1.485       .  S
N1650      C1651   1.355       .  A
C1651      N1652   1.355       .  A
C1651      C1677   1.473       .  S
N1652      C1653   1.360       .  A
C1653      N1654   1.361       .  A
Fe1655     O1671   2.065       .  S
Fe1655     O1661   2.061       .  S
Fe1655     O1668   2.059       .  S
Fe1655     O1660   2.066       .  S
Fe1655     O1666   1.979       .  S
Fe1656     O1659   2.062       .  S
Fe1656     O1663   2.067       .  S
Fe1656     O1667   2.063       .  S
Fe1656     O1672   2.069       .  S
Fe1656     O1666   1.984       .  S
Fe1657     O1675   2.068       .  S
Fe1657     O1662   2.060       .  S
Fe1657     O1669   2.066       .  S
Fe1657     O1658   2.068       .  S
Fe1657     O1666   1.981       .  S
O1658      C1665   1.270       .  A
O1659      C1673   1.268       .  A
O1660      C1665   1.268       .  A
O1661      C1664   1.268       .  A
O1662      C1674   1.268       .  A
O1663      C1676   1.269       .  A
C1664      O1669   1.267       .  A
O1667      C1670   1.267       .  A
O1668      C1670   1.268       .  A
O1671      C1676   1.268       .  A
O1672      C1674   1.268       .  A
C1673      O1675   1.269       .  A
C1677      C1678   1.403       .  A
C1677      C1682   1.404       .  A
C1678      C1939   1.405       .  A
C1678      H1683   1.084       .  S
C1679      C1938   1.405   1_554  A
C1679      C1680   1.415       .  A
C1679      O1684   1.371       .  S
C1680      C1941   1.408   1_554  A
C1681      C1940   1.408       .  A
C1681      C1682   1.395       .  A
C1681      H1685   1.083       .  S
C1682      O1686   1.372       .  S
O1684      H1688   0.992       .  S
O1686      H1687   0.992       .  S
C1689      C1950   1.406       .  A
C1689      C1694   1.409       .  A
C1690      C1949   1.407       .  A
C1690      C1691   1.405   1_566  A
C1690      H1695   1.084       .  S
C1692      C1953   1.406   1_554  A
C1693      C1952   1.407       .  A
C1693      H1697   1.083       .  S
C1694      O1698   1.371       .  S
O1698      H1699   0.992       .  S
C1702      C1703   1.404       .  A
C1702      H1707   1.084   1_655  S
C1703      C1964   1.414       .  A
C1703      O1708   1.371       .  S
C1704      C1963   1.414       .  A
C1704      C1705   1.408   1_554  A
C1705      C1706   1.396       .  A
C1705      H1709   1.083       .  S
O1708      H1712   0.992       .  S
O1710      H1711   0.992       .  S
C1713      C1714   1.401       .  A
C1713      C1978   1.408   1_554  A
C1714      C1715   1.394   1_554  A
C1714      H1719   1.084       .  S
C1715      C1976   1.411       .  A
C1715      O1720   1.372       .  S
C1716      C1975   1.412       .  A
C1716      C1717   1.409       .  A
C1717      C1718   1.406       .  A
C1717      H1721   1.083       .  S
C1718      C1973   1.409       .  A
C1718      O1722   1.371       .  S
O1720      H1724   0.992   1_556  S
O1722      H1723   0.992       .  S
C1725      C1726   1.409       .  A
C1725      C1990   1.415   1_554  A
C1726      C1727   1.406   1_554  A
C1726      H1731   1.083       .  S
C1729      C1730   1.396       .  A
C1729      H1733   1.084   1_655  S
C1730      C1985   1.413       .  A
C1730      O1734   1.370       .  S
O1732      H1736   0.992   1_556  S
O1734      H1735   0.992       .  S
C1737      C1738   1.404       .  A
C1737      C2002   1.405       .  A
C1738      H1743   1.084   1_554  S
C1739      C2000   1.414       .  A
C1739      O1744   1.372       .  S
C1740      C1999   1.414       .  A
C1740      C1741   1.405       .  A
C1741      H1745   1.082       .  S
C1742      C1997   1.405       .  A
C1742      O1746   1.373       .  S
O1744      H1748   0.992       .  S
O1746      H1747   0.992       .  S
C1749      C1750   1.406       .  A
C1749      C1754   1.412       .  A
C1750      C1751   1.407       .  A
C1750      H1755   1.084       .  S
C1751      C1752   1.413       .  A
C1751      O1756   1.372       .  S
C1752      C1753   1.403       .  A
C1753      C1754   1.395       .  A
C1753      H1757   1.083       .  S
C1754      O1758   1.372       .  S
O1756      H1760   0.992       .  S
O1758      H1759   0.992       .  S
C1762      C1763   1.403       .  A
C1762      H1767   1.083   1_655  S
C1763      C1764   1.406       .  A
C1763      O1768   1.372       .  S
C1764      C1765   1.399       .  A
C1765      C1766   1.396       .  A
C1765      H1769   1.084       .  S
O1768      H1772   0.992       .  S
C1773      C1774   1.406       .  A
C1773      C1778   1.408       .  A
C1774      H1779   1.083       .  S
C1775      C1776   1.412       .  A
C1775      O1780   1.371       .  S
C1777      C1778   1.396   1_545  A
C1778      O1782   1.372       .  S
O1780      H1784   0.992       .  S
O1782      H1783   0.992       .  S
C1786      C1787   1.393       .  A
C1787      C1788   1.409       .  A
C1787      O1792   1.372       .  S
C1788      C1789   1.405       .  A
C1789      C1790   1.405       .  A
C1789      H1793   1.084       .  S
C1790      O1794   1.372   1_655  S
O1792      H1796   0.992       .  S
O1794      H1795   0.992       .  S
C1797      C1798   1.405       .  A
C1797      C1802   1.407       .  A
C1798      H1803   1.084       .  S
C1799      C1800   1.405       .  A
C1799      O1804   1.371       .  S
C1801      C1802   1.398       .  A
C1802      O1806   1.372       .  S
O1804      H1808   0.992       .  S
O1806      H1807   0.992       .  S
C1809      C1810   1.402       .  A
C1809      C1814   1.411       .  A
C1810      C1811   1.396       .  A
C1810      H1815   1.084       .  S
C1811      C1812   1.412       .  A
C1811      O1816   1.372       .  S
C1812      C1813   1.407       .  A
C1813      C1814   1.406       .  A
C1813      H1817   1.084       .  S
C1814      O1818   1.372       .  S
O1816      H1820   0.992       .  S
O1818      H1819   0.992       .  S
C1821      N1822   1.357       .  A
C1821      N1826   1.354       .  A
C1821      C2060   1.468       .  S
N1822      C1823   1.361       .  A
C1823      N1824   1.360       .  A
C1823      C2069   1.481       .  S
N1824      C1825   1.360       .  A
C1825      N1826   1.356       .  A
C1825      C1930   1.467       .  S
C1827      N1828   1.357       .  A
C1827      N1832   1.357       .  A
C1827      C2045   1.481       .  S
N1828      C1829   1.356       .  A
C1829      N1830   1.358       .  A
C1829      C2072   1.485       .  S
N1830      C1831   1.362       .  A
C1831      N1832   1.359       .  A
C1831      C1866   1.466       .  S
C1833      N1834   1.356       .  A
C1833      N1838   1.360       .  A
C1833      C2036   1.487       .  S
N1834      C1835   1.355       .  A
C1835      N1836   1.358       .  A
C1835      C2048   1.479       .  S
N1836      C1837   1.361       .  A
C1837      N1838   1.363       .  A
C1837      C1925   1.472       .  S
C1839      N1840   1.362       .  A
C1839      N1844   1.358       .  A
C1839      C2009   1.487       .  S
N1840      C1841   1.364       .  A
C1841      N1842   1.360       .  A
C1841      C1934   1.470       .  S
N1842      C1843   1.354       .  A
C1843      N1844   1.355       .  A
C1843      C2024   1.473       .  S
C1845      N1846   1.358       .  A
C1845      N1850   1.358       .  A
C1845      C2033   1.482       .  S
N1846      C1847   1.360       .  A
C1847      N1848   1.361       .  A
C1847      C1875   1.468       .  S
N1848      C1849   1.358       .  A
C1849      N1850   1.359       .  A
C1849      C2012   1.486       .  S
C1851      N1852   1.355       .  A
C1851      N1856   1.356       .  A
C1851      C2057   1.472       .  S
N1852      C1853   1.357       .  A
C1853      N1854   1.361       .  A
C1853      C1878   1.468       .  S
N1854      C1855   1.362       .  A
C1855      N1856   1.359       .  A
C1855      C2021   1.491       .  S
Fe1857     O1873   2.065       .  S
Fe1857     O1863   2.064       .  S
Fe1857     O1870   2.063       .  S
Fe1857     O1862   2.064       .  S
Fe1857     O1868   1.981       .  S
Fe1858     O1861   2.065       .  S
Fe1858     O1865   2.061       .  S
Fe1858     O1869   2.059       .  S
Fe1858     O1874   2.063       .  S
Fe1858     O1868   1.980       .  S
Fe1859     O1877   2.058       .  S
Fe1859     O1864   2.056       .  S
Fe1859     O1871   2.057       .  S
Fe1859     O1860   2.056       .  S
Fe1859     O1868   1.979       .  S
O1860      C1867   1.267       .  A
O1861      C1875   1.268       .  A
O1862      C1867   1.268       .  A
O1863      C1866   1.269       .  A
O1864      C1876   1.267       .  A
O1865      C1878   1.269       .  A
C1866      O1871   1.267       .  A
C1867      C1913   1.466       .  S
O1869      C1872   1.267       .  A
O1870      C1872   1.268       .  A
C1872      C1899   1.466       .  S
O1873      C1878   1.268       .  A
O1874      C1876   1.268       .  A
C1875      O1877   1.267       .  A
C1876      C1887   1.465       .  S
C1879      N1880   1.356       .  A
C1879      N1884   1.355       .  A
C1879      C1997   1.475       .  S
N1880      C1881   1.358       .  A
C1881      N1882   1.362       .  A
C1881      C1985   1.489       .  S
N1882      C1883   1.363       .  A
C1883      N1884   1.359       .  A
C1883      C1924   1.470       .  S
C1885      N1886   1.358       .  A
C1885      N1890   1.358       .  A
C1885      C2000   1.485       .  S
N1886      C1887   1.360       .  A
C1887      N1888   1.360       .  A
N1888      C1889   1.357       .  A
C1889      N1890   1.356       .  A
C1889      C1976   1.484       .  S
C1891      N1892   1.360       .  A
C1891      N1896   1.356       .  A
C1891      C1964   1.489       .  S
N1892      C1893   1.362       .  A
C1893      N1894   1.362       .  A
C1893      C1933   1.470       .  S
N1894      C1895   1.357       .  A
C1895      N1896   1.355       .  A
C1895      C1973   1.477       .  S
C1897      N1898   1.356       .  A
C1897      N1902   1.357       .  A
C1897      C1961   1.472       .  S
N1898      C1899   1.358       .  A
C1899      N1900   1.360       .  A
N1900      C1901   1.358       .  A
C1901      N1902   1.358       .  A
C1901      C1949   1.482       .  S
C1903      N1904   1.355       .  A
C1903      N1908   1.360       .  A
C1903      C1952   1.487       .  S
N1904      C1905   1.356       .  A
C1905      N1906   1.358       .  A
C1905      C1940   1.489       .  S
N1906      C1907   1.361       .  A
C1907      N1908   1.363       .  A
C1907      C1936   1.471       .  S
C1909      N1910   1.358       .  A
C1909      N1914   1.359       .  A
C1909      C1988   1.483       .  S
N1910      C1911   1.356       .  A
C1911      N1912   1.355       .  A
C1911      C1937   1.473       .  S
N1912      C1913   1.360       .  A
C1913      N1914   1.361       .  A
Fe1915     O1931   2.067       .  S
Fe1915     O1921   2.062       .  S
Fe1915     O1928   2.059       .  S
Fe1915     O1920   2.068       .  S
Fe1915     O1926   1.980       .  S
Fe1916     O1919   2.062       .  S
Fe1916     O1923   2.066       .  S
Fe1916     O1927   2.062       .  S
Fe1916     O1932   2.069       .  S
Fe1916     O1926   1.984       .  S
Fe1917     O1935   2.068       .  S
Fe1917     O1922   2.060       .  S
Fe1917     O1929   2.067       .  S
Fe1917     O1918   2.069       .  S
Fe1917     O1926   1.981       .  S
O1918      C1925   1.270       .  A
O1919      C1933   1.268       .  A
O1920      C1925   1.269       .  A
O1921      C1924   1.268       .  A
O1922      C1934   1.268       .  A
O1923      C1936   1.269       .  A
C1924      O1929   1.268       .  A
O1927      C1930   1.267       .  A
O1928      C1930   1.268       .  A
O1931      C1936   1.269       .  A
O1932      C1934   1.268       .  A
C1933      O1935   1.269       .  A
C1937      C1938   1.403       .  A
C1937      C1942   1.404       .  A
C1938      H1943   1.084   1_556  S
C1939      C1940   1.415       .  A
C1939      O1944   1.371       .  S
C1941      C1942   1.395       .  A
C1941      H1945   1.083       .  S
C1942      O1946   1.372       .  S
O1944      H1948   0.992       .  S
O1946      H1947   0.992       .  S
C1949      C1954   1.409       .  A
C1950      C1951   1.406   1_565  A
C1950      H1955   1.084       .  S
C1953      H1957   1.084       .  S
C1954      O1958   1.371       .  S
O1958      H1959   0.992       .  S
C1962      C1963   1.404   1_556  A
C1962      H1967   1.084   1_656  S
C1963      O1968   1.371       .  S
C1964      C1965   1.408       .  A
C1965      C1966   1.396       .  A
C1965      H1969   1.083       .  S
O1968      H1972   0.992   1_554  S
O1970      H1971   0.992       .  S
C1973      C1974   1.401       .  A
C1974      C1975   1.394       .  A
C1974      H1979   1.084       .  S
C1975      O1980   1.372       .  S
C1976      C1977   1.408       .  A
C1977      C1978   1.405       .  A
C1977      H1981   1.083       .  S
C1978      O1982   1.371       .  S
O1980      H1984   0.992       .  S
O1982      H1983   0.992       .  S
C1985      C1986   1.408       .  A
C1986      C1987   1.406       .  A
C1986      H1991   1.083       .  S
C1989      C1990   1.396       .  A
C1989      H1993   1.084       .  S
C1990      O1994   1.370       .  S
O1992      H1996   0.992       .  S
O1994      H1995   0.992       .  S
C1997      C1998   1.403       .  A
C1998      H2003   1.084       .  S
C1999      O2004   1.372       .  S
C2000      C2001   1.405   1_556  A
C2001      H2005   1.082       .  S
C2002      O2006   1.373       .  S
O2004      H2008   0.992       .  S
O2006      H2007   0.992       .  S
C2009      C2010   1.407       .  A
C2009      C2014   1.413       .  A
C2010      C2011   1.407       .  A
C2010      H2015   1.084       .  S
C2011      C2012   1.413       .  A
C2011      O2016   1.372       .  S
C2012      C2013   1.403       .  A
C2013      C2014   1.395       .  A
C2013      H2017   1.083       .  S
C2014      O2018   1.372       .  S
O2016      H2020   0.992       .  S
O2018      H2019   0.992       .  S
C2022      C2023   1.403       .  A
C2022      H2027   1.083   1_655  S
C2023      C2024   1.406       .  A
C2023      O2028   1.372       .  S
C2024      C2025   1.399       .  A
C2025      C2026   1.396       .  A
C2025      H2029   1.084       .  S
O2028      H2032   0.992       .  S
C2033      C2034   1.406       .  A
C2033      C2038   1.408       .  A
C2034      H2039   1.083       .  S
C2035      C2036   1.412       .  A
C2035      O2040   1.371       .  S
C2037      C2038   1.397   1_545  A
C2038      O2042   1.372       .  S
O2040      H2044   0.992       .  S
O2042      H2043   0.992       .  S
C2046      C2047   1.393       .  A
C2047      C2048   1.410       .  A
C2047      O2052   1.372       .  S
C2048      C2049   1.405       .  A
C2049      C2050   1.405       .  A
C2049      H2053   1.084       .  S
C2050      O2054   1.372   1_655  S
O2052      H2056   0.992       .  S
O2054      H2055   0.992       .  S
C2057      C2058   1.405       .  A
C2057      C2062   1.407       .  A
C2058      H2063   1.084       .  S
C2059      C2060   1.405       .  A
C2059      O2064   1.371       .  S
C2061      C2062   1.398       .  A
C2062      O2066   1.372       .  S
O2064      H2068   0.992       .  S
O2066      H2067   0.992       .  S
C2069      C2070   1.402       .  A
C2069      C2074   1.410       .  A
C2070      C2071   1.396       .  A
C2070      H2075   1.084       .  S
C2071      C2072   1.412       .  A
C2071      O2076   1.372       .  S
C2072      C2073   1.407       .  A
C2073      C2074   1.405       .  A
C2073      H2077   1.084       .  S
C2074      O2078   1.372       .  S
O2076      H2080   0.992       .  S
O2078      H2079   0.992       .  S
