geometry optimzed in LAMMPS
_audit_creation_date              2020-11-30 
_audit_creation_method            'lammps2cif' 
_symmetry_space_group_name_H-M    'P1' 
_symmetry_Int_Tables_number       1 
_symmetry_cell_setting            triclinic 
loop_ 
_symmetry_equiv_pos_as_xyz 
  x,y,z 
_cell_length_a                    85.01204887 
_cell_length_b                    84.94884572729876 
_cell_length_c                    84.95771183244939 
_cell_angle_alpha                 89.9697060906589 
_cell_angle_beta                  89.97470897039764 
_cell_angle_gamma                 89.9727079250927 
loop_ 
_atom_site_label 
_atom_site_type_symbol 
_atom_site_fract_x 
_atom_site_fract_y 
_atom_site_fract_z 
_atom_site_charge 
N1          N  0.53022084  0.08621756  0.49784330    -0.36700
N2          N  0.50662532  0.08607958  0.52268733    -0.57300
N3          N  0.48162000  0.08944585  0.49969221    -0.36700
N4          N  0.50521219  0.08826035  0.47487142    -0.57300
C5          C  0.53870615  0.08076574  0.51015393     0.26900
C6          C  0.53800166  0.08204493  0.48457913     0.26900
C7          C  0.47334465  0.08517053  0.51262321     0.26900
C8          C  0.47256551  0.08608788  0.48702494     0.26900
C9          C  0.51974926  0.08675401  0.53159669     0.35500
C10         C  0.49441365  0.08843765  0.53257406     0.35500
C11         C  0.51772931  0.09020364  0.46525303     0.35500
C12         C  0.49232376  0.09160254  0.46619501     0.35500
C13         C  0.55212830  0.07326589  0.50468350    -0.22000
C14         C  0.55166243  0.07403068  0.48853457    -0.22000
C15         C  0.45877755  0.07937112  0.50814494    -0.22000
C16         C  0.45830882  0.07988480  0.49200565    -0.22000
C17         C  0.51588498  0.08972707  0.54716795    -0.23000
C18         C  0.49979949  0.09081188  0.54778547    -0.23000
C19         C  0.51279268  0.09510366  0.45049766    -0.23000
C20         C  0.49667716  0.09595142  0.45108521    -0.23000
C21         C  0.53492142  0.08280839  0.52620758    -0.18400
C22         C  0.53323762  0.08557973  0.46902729    -0.18400
C23         C  0.47672195  0.08868979  0.47110311    -0.18400
C24         C  0.47849917  0.08648271  0.52838296    -0.18400
H25         H  0.56125791  0.06769590  0.51160340     0.14500
H26         H  0.56035477  0.06911954  0.48062653     0.14500
H27         H  0.44952262  0.07494759  0.51569586     0.14500
H28         H  0.44860554  0.07591881  0.48479117     0.14500
H29         H  0.52379219  0.09048353  0.55712149     0.12800
H30         H  0.49283695  0.09258265  0.55830724     0.12800
H31         H  0.52000862  0.09726321  0.44022254     0.12800
H32         H  0.48899967  0.09889023  0.44135657     0.12800
H33         H  0.52047161  0.09358816  0.49851772     0.26100
H34         H  0.49227608  0.09543507  0.49958029     0.26100
N35         N  0.13377596  0.46181041  0.52184539    -0.36700
N36         N  0.13446708  0.48481736  0.49622957    -0.57300
N37         N  0.13844202  0.45996438  0.47312941    -0.36700
N38         N  0.13623653  0.43695502  0.49863475    -0.57300
C39         C  0.12835809  0.47484720  0.52923227     0.26900
C40         C  0.12923027  0.44923184  0.53053712     0.26900
C41         C  0.13473760  0.47229654  0.46371340     0.26900
C42         C  0.13527558  0.44666827  0.46495048     0.26900
C43         C  0.13545980  0.49455868  0.50876954     0.35500
C44         C  0.13797605  0.49359652  0.48340755     0.35500
C45         C  0.13695827  0.42809678  0.51185108     0.35500
C46         C  0.13936572  0.42717372  0.48649039     0.35500
C47         C  0.12051372  0.47049667  0.54288693    -0.22000
C48         C  0.12112426  0.45436246  0.54373954    -0.22000
C49         C  0.12943203  0.46676038  0.44930866    -0.22000
C50         C  0.12980458  0.45059591  0.45007596    -0.22000
C51         C  0.13986866  0.50950516  0.50391710    -0.23000
C52         C  0.14144447  0.50889707  0.48784353    -0.23000
C53         C  0.14080994  0.41269630  0.50810344    -0.23000
C54         C  0.14231943  0.41210508  0.49203773    -0.23000
C55         C  0.13068118  0.49058528  0.52421803    -0.18400
C56         C  0.13219436  0.43323491  0.52693728    -0.18400
C57         C  0.13736397  0.43108087  0.47045058    -0.18400
C58         C  0.13631776  0.48840421  0.46768629    -0.18400
H59         H  0.11475790  0.47811560  0.55131468     0.14500
H60         H  0.11593523  0.44722535  0.55293090     0.14500
H61         H  0.12550851  0.47363022  0.43932240     0.14500
H62         H  0.12626252  0.44264589  0.44077934     0.14500
H63         H  0.14138254  0.51987064  0.51116075     0.12800
H64         H  0.14440048  0.51869041  0.48024529     0.12800
H65         H  0.14181843  0.40279216  0.51606019     0.12800
H66         H  0.14468612  0.40164042  0.48516632     0.12800
H67         H  0.14123999  0.46161706  0.51211498     0.26100
H68         H  0.14399849  0.46058010  0.48402715     0.26100
N69         N  0.47540413  0.85546257  0.50189666    -0.36700
N70         N  0.49835682  0.85393543  0.52694447    -0.57300
N71         N  0.52305556  0.85431735  0.50314374    -0.36700
N72         N  0.50003201  0.85382290  0.47806305    -0.57300
C73         C  0.46611429  0.85211847  0.51438772     0.26900
C74         C  0.46696709  0.85243274  0.48877269     0.26900
C75         C  0.53135900  0.85091791  0.51625894     0.26900
C76         C  0.53221953  0.85065645  0.49066635     0.26900
C77         C  0.48546034  0.85783508  0.53539321     0.35500
C78         C  0.51090039  0.85750621  0.53601052     0.35500
C79         C  0.48768069  0.85795569  0.46895125     0.35500
C80         C  0.51311440  0.85701129  0.46959365     0.35500
C81         C  0.45166751  0.84666594  0.50912112    -0.22000
C82         C  0.45218187  0.84694055  0.49293427    -0.22000
C83         C  0.54593789  0.84487176  0.51209554    -0.22000
C84         C  0.54647659  0.84469545  0.49591364    -0.22000
C85         C  0.48984446  0.86383475  0.54992090    -0.23000
C86         C  0.50598824  0.86356531  0.55033107    -0.23000
C87         C  0.49291957  0.86362489  0.45457376    -0.23000
C88         C  0.50905649  0.86302373  0.45498031    -0.23000
C89         C  0.46982351  0.85544778  0.53027702    -0.18400
C90         C  0.47175179  0.85601132  0.47325163    -0.18400
C91         C  0.52862596  0.85409756  0.47479527    -0.18400
C92         C  0.52667985  0.85459760  0.53177463    -0.18400
H93         H  0.44164524  0.84325393  0.51620254     0.14500
H94         H  0.44264352  0.84378890  0.48511169     0.14500
H95         H  0.55534986  0.84131702  0.51990653     0.14500
H96         H  0.55638361  0.84098218  0.48881795     0.14500
H97         H  0.48225239  0.86806888  0.55922567     0.12800
H98         H  0.51327108  0.86745841  0.56002151     0.12800
H99         H  0.48587310  0.86783356  0.44483575     0.12800
H100        H  0.51687799  0.86672791  0.44563594     0.12800
H101        H  0.48600299  0.86162436  0.50225494     0.26100
H102        H  0.51267550  0.86086441  0.50277354     0.26100
N103        N  0.87647077  0.46622605  0.47962318    -0.36700
N104        N  0.87598613  0.48986277  0.50381666    -0.57300
N105        N  0.87765753  0.46581996  0.52827423    -0.36700
N106        N  0.87953870  0.44213236  0.50412023    -0.57300
C107        C  0.87936510  0.47939150  0.47109556     0.26900
C108        C  0.88206716  0.45389380  0.47126196     0.26900
C109        C  0.88175153  0.47883236  0.53647952     0.26900
C110        C  0.88249561  0.45321928  0.53673645     0.26900
C111        C  0.87196725  0.49888916  0.49135673     0.35500
C112        C  0.87343079  0.49870343  0.51675262     0.35500
C113        C  0.87791194  0.43293096  0.49127730     0.35500
C114        C  0.87765294  0.43261979  0.51674522     0.35500
C115        C  0.88671765  0.47535249  0.45709852    -0.22000
C116        C  0.88841965  0.45925464  0.45719917    -0.22000
C117        C  0.88915548  0.47443587  0.55035421    -0.22000
C118        C  0.88952441  0.45824691  0.55056222    -0.22000
C119        C  0.86649138  0.51340043  0.49642426    -0.23000
C120        C  0.86753489  0.51332208  0.51254075    -0.23000
C121        C  0.87485130  0.41753200  0.49573903    -0.23000
C122        C  0.87461764  0.41734763  0.51190584    -0.23000
C123        C  0.87524456  0.49489304  0.47557008    -0.18400
C124        C  0.88103632  0.43789260  0.47573390    -0.18400
C125        C  0.88029860  0.43730861  0.53246135    -0.18400
C126        C  0.87835250  0.49450325  0.53202755    -0.18400
H127        H  0.89062452  0.48318151  0.44783850     0.14500
H128        H  0.89381059  0.45230758  0.44798287     0.14500
H129        H  0.89378463  0.48207431  0.55942535     0.14500
H130        H  0.89455063  0.45100556  0.55976244     0.14500
H131        H  0.86271860  0.52322690  0.48924380     0.12800
H132        H  0.86473434  0.52306167  0.52026169     0.12800
H133        H  0.87335529  0.40742444  0.48813354     0.12800
H134        H  0.87290813  0.40706964  0.51924134     0.12800
H135        H  0.86980128  0.46553368  0.48985415     0.26100
H136        H  0.87065136  0.46551203  0.51827857     0.26100
N137        N  0.47503146  0.46358952  0.13294590    -0.36700
N138        N  0.49753639  0.48887303  0.12914500    -0.57300
N139        N  0.52209778  0.46540706  0.12774754    -0.36700
N140        N  0.49961927  0.44007562  0.13340816    -0.57300
C141        C  0.46605879  0.47627999  0.13639580     0.26900
C142        C  0.46711159  0.45075283  0.13800839     0.26900
C143        C  0.53053792  0.47880413  0.12913326     0.26900
C144        C  0.53166421  0.45334586  0.13167298     0.26900
C145        C  0.48409861  0.49685731  0.12639458     0.35500
C146        C  0.50928727  0.49776141  0.12323431     0.35500
C147        C  0.48701755  0.43059940  0.13131721     0.35500
C148        C  0.51238787  0.43161825  0.12914143     0.35500
C149        C  0.45242394  0.47148709  0.14395101    -0.22000
C150        C  0.45308412  0.45533795  0.14496016    -0.22000
C151        C  0.54561891  0.47525887  0.13423788    -0.22000
C152        C  0.54632809  0.45915632  0.13586229    -0.22000
C153        C  0.48730383  0.51096402  0.11884278    -0.23000
C154        C  0.50330971  0.51151456  0.11678272    -0.23000
C155        C  0.49181886  0.41597764  0.12589534    -0.23000
C156        C  0.50792673  0.41660644  0.12457796    -0.23000
C157        C  0.46908685  0.49177521  0.13123339    -0.18400
C158        C  0.47132811  0.43504261  0.13459283    -0.18400
C159        C  0.52801864  0.43723081  0.12980121    -0.18400
C160        C  0.52536582  0.49391573  0.12450854    -0.18400
H161        H  0.44277104  0.47882716  0.14784547     0.14500
H162        H  0.44403829  0.44777550  0.14977365     0.14500
H163        H  0.55520524  0.48340087  0.13623713     0.14500
H164        H  0.55659259  0.45244256  0.13931231     0.14500
H165        H  0.47899661  0.51989233  0.11515900     0.12800
H166        H  0.50977190  0.52096466  0.11120282     0.12800
H167        H  0.48452358  0.40594581  0.12304459     0.12800
H168        H  0.51545038  0.40716293  0.12052252     0.12800
H169        H  0.48461144  0.46347996  0.12544223     0.26100
H170        H  0.51112632  0.46434759  0.12218352     0.26100
N171        N  0.52087331  0.46084875  0.86691142    -0.36700
N172        N  0.49779798  0.48642922  0.86839187    -0.57300
N173        N  0.47232726  0.46398403  0.86959271    -0.36700
N174        N  0.49538834  0.43854959  0.86955567    -0.57300
C175        C  0.53015253  0.47318490  0.87079848     0.26900
C176        C  0.52883700  0.44757408  0.87073791     0.26900
C177        C  0.46466402  0.47743489  0.87332460     0.26900
C178        C  0.46350241  0.45188336  0.87500016     0.26900
C179        C  0.51103423  0.49476298  0.86558652     0.35500
C180        C  0.48561437  0.49642661  0.86612882     0.35500
C181        C  0.50726631  0.42841974  0.86653741     0.35500
C182        C  0.48197839  0.43009403  0.86870826     0.35500
C183        C  0.54425454  0.46768428  0.87690693    -0.22000
C184        C  0.54342723  0.45153051  0.87686137    -0.22000
C185        C  0.45069253  0.47382421  0.88095825    -0.22000
C186        C  0.44997229  0.45769822  0.88203615    -0.22000
C187        C  0.50725439  0.51007349  0.86138168    -0.23000
C188        C  0.49113145  0.51110900  0.86165096    -0.23000
C189        C  0.50134671  0.41353906  0.86343422    -0.23000
C190        C  0.48530648  0.41458127  0.86491791    -0.23000
C191        C  0.52643191  0.48926250  0.86856212    -0.18400
C192        C  0.52333489  0.43198581  0.86871722    -0.18400
C193        C  0.46705909  0.43572377  0.87326445    -0.18400
C194        C  0.46976931  0.49286879  0.86970844    -0.18400
H195        H  0.55409500  0.47458348  0.88110272     0.14500
H196        H  0.55247641  0.44362676  0.88108927     0.14500
H197        H  0.44198025  0.48195924  0.88545312     0.14500
H198        H  0.44055245  0.45102623  0.88742026     0.14500
H199        H  0.51529947  0.51959917  0.85877824     0.12800
H200        H  0.48428876  0.52159356  0.85929401     0.12800
H201        H  0.50793362  0.40291204  0.86098684     0.12800
H202        H  0.47706568  0.40493425  0.86382066     0.12800
H203        H  0.51028799  0.46144728  0.86078723     0.26100
H204        H  0.48228546  0.46307713  0.86248383     0.26100
N205        N  0.99867089  0.60374558  0.02420689    -0.36700
N206        N  0.02256409  0.60591707  0.99999243    -0.57300
N207        N  0.99725492  0.60554937  0.97697813    -0.36700
N208        N  0.97341689  0.60527155  0.00127033    -0.57300
C209        C  0.01163447  0.60713576  0.03276098     0.26900
C210        C  0.98605033  0.60663818  0.03344110     0.26900
C211        C  0.00978459  0.60945473  0.96800129     0.26900
C212        C  0.98420536  0.60916214  0.96862325     0.26900
C213        C  0.03145594  0.60124648  0.01232119     0.35500
C214        C  0.03068324  0.60208315  0.98687322     0.35500
C215        C  0.96532467  0.60035547  0.01403396     0.35500
C216        C  0.96453828  0.60155361  0.98862723     0.35500
C217        C  0.00718580  0.61262303  0.04748588    -0.22000
C218        C  0.99100021  0.61223696  0.04793650    -0.22000
C219        C  0.00464903  0.61594208  0.95392473    -0.22000
C220        C  0.98846866  0.61571062  0.95430177    -0.22000
C221        C  0.04535544  0.59455479  0.00703629    -0.23000
C222        C  0.04486094  0.59507020  0.99088217    -0.23000
C223        C  0.95118077  0.59361804  0.00948529    -0.23000
C224        C  0.95066012  0.59443879  0.99335718    -0.23000
C225        C  0.02719976  0.60337242  0.02824499    -0.18400
C226        C  0.97044512  0.60237391  0.02970990    -0.18400
C227        C  0.96873202  0.60494522  0.97292639    -0.18400
C228        C  0.02550933  0.60527834  0.97139321    -0.18400
H229        H  0.01482331  0.61596667  0.05710846     0.14500
H230        H  0.98371545  0.61521315  0.05795546     0.14500
H231        H  0.01182157  0.61986812  0.94415539     0.14500
H232        H  0.98072700  0.61944275  0.94490214     0.14500
H233        H  0.05475379  0.58958587  0.01404305     0.12800
H234        H  0.05381813  0.59056921  0.98303083     0.12800
H235        H  0.94223027  0.58848218  0.01694265     0.12800
H236        H  0.94125281  0.59008565  0.98597085     0.12800
H237        H  0.99850385  0.59744854  0.01373387     0.26100
H238        H  0.99760502  0.59858906  0.98699847     0.26100
N239        N  0.62342471  0.96400746  0.02100471    -0.36700
N240        N  0.62592118  0.93689411  0.00020299    -0.57300
N241        N  0.62419429  0.95857660  0.97370746    -0.36700
N242        N  0.62414192  0.98577316  0.99462731    -0.57300
C243        C  0.62667107  0.95244752  0.03145926     0.26900
C244        C  0.62548858  0.97786781  0.02855830     0.26900
C245        C  0.62707522  0.94488301  0.96608563     0.26900
C246        C  0.62636844  0.97037064  0.96320649     0.26900
C247        C  0.62265395  0.92940611  0.01386799     0.35500
C248        C  0.62295748  0.92647167  0.98855407     0.35500
C249        C  0.61992134  0.99584059  0.00619854     0.35500
C250        C  0.62059803  0.99301987  0.98092009     0.35500
C251        C  0.63106110  0.95903904  0.04573069    -0.22000
C252        C  0.63026936  0.97510863  0.04390656    -0.22000
C253        C  0.63125167  0.94802365  0.95061938    -0.22000
C254        C  0.63081807  0.96411230  0.94880669    -0.22000
C255        C  0.61799050  0.91405574  0.01089248    -0.23000
C256        C  0.61822594  0.91218637  0.99486467    -0.23000
C257        C  0.61407513  0.00967284  0.99982779    -0.23000
C258        C  0.61452372  0.00789705  0.98380243    -0.23000
C259        C  0.62390195  0.93623494  0.02899528    -0.18400
C260        C  0.62145278  0.99278231  0.02244940    -0.18400
C261        C  0.62273159  0.98640937  0.96581392    -0.18400
C262        C  0.62447084  0.92964041  0.97228460    -0.18400
H263        H  0.63401358  0.95288835  0.05649244     0.14500
H264        H  0.63250506  0.98377529  0.05296703     0.14500
H265        H  0.63391109  0.93957053  0.94146909     0.14500
H266        H  0.63305136  0.97045924  0.93798510     0.14500
H267        H  0.61449216  0.90517732  0.01932840     0.12800
H268        H  0.61495670  0.90159979  0.98858990     0.12800
H269        H  0.60970240  0.01988895  0.00605417     0.12800
H270        H  0.61051211  0.01647384  0.97527789     0.12800
H271        H  0.61776849  0.96254340  0.01040685     0.26100
H272        H  0.61887192  0.95963967  0.98448859     0.26100
N273        N  0.97872468  0.33803778  0.99994945    -0.36700
N274        N  0.00292635  0.34253049  0.02356774    -0.57300
N275        N  0.02735579  0.34017532  0.99981650    -0.36700
N276        N  0.00308423  0.33705304  0.97604639    -0.57300
C277        C  0.97014300  0.34361844  0.01215282     0.26900
C278        C  0.97023721  0.34052171  0.98671505     0.26900
C279        C  0.03551227  0.34617832  0.01209998     0.26900
C280        C  0.03556230  0.34358143  0.98658937     0.26900
C281        C  0.99027707  0.34046511  0.03296600     0.35500
C282        C  0.01569277  0.34135033  0.03294749     0.35500
C283        C  0.99055522  0.33275206  0.96728466     0.35500
C284        C  0.01595344  0.33416685  0.96717929     0.35500
C285        C  0.95598916  0.34957128  0.00663755    -0.22000
C286        C  0.95605121  0.34762952  0.99057240    -0.22000
C287        C  0.04914184  0.35329905  0.00665159    -0.22000
C288        C  0.04915844  0.35169375  0.99054471    -0.22000
C289        C  0.99501476  0.33772808  0.04832882    -0.23000
C290        C  0.01115023  0.33826581  0.04831541    -0.23000
C291        C  0.99549601  0.32682187  0.95290860    -0.23000
C292        C  0.01161730  0.32777863  0.95282112    -0.23000
C293        C  0.97459968  0.34298968  0.02816388    -0.18400
C294        C  0.97479328  0.33604387  0.97134113    -0.18400
C295        C  0.03128317  0.33913047  0.97112376    -0.18400
C296        C  0.03116896  0.34492338  0.02811955    -0.18400
H297        H  0.94661734  0.35486210  0.01344920     0.14500
H298        H  0.94673609  0.35116609  0.98264417     0.14500
H299        H  0.05809726  0.35916288  0.01353917     0.14500
H300        H  0.05814536  0.35609036  0.98266514     0.14500
H301        H  0.98760023  0.33598827  0.05854232     0.12800
H302        H  0.01865649  0.33701660  0.05852676     0.12800
H303        H  0.98822170  0.32275209  0.94328498     0.12800
H304        H  0.01925220  0.32459906  0.94313083     0.12800
H305        H  0.98909310  0.33158677  0.00075662     0.26100
H306        H  0.01752776  0.33294197  0.00056448     0.26100
N307        N  0.37025503  0.98775418  0.00206427    -0.36700
N308        N  0.36727207  0.96272564  0.02473252    -0.57300
N309        N  0.36588941  0.93930289  0.99954452    -0.36700
N310        N  0.37031080  0.96440533  0.97694255    -0.57300
C311        C  0.37403746  0.99534963  0.01554309     0.26900
C312        C  0.37651126  0.99611727  0.99004652     0.26900
C313        C  0.36932804  0.93016685  0.01214196     0.26900
C314        C  0.36994106  0.93107374  0.98650588     0.26900
C315        C  0.36487499  0.97513923  0.03438812     0.35500
C316        C  0.36354248  0.94973827  0.03309062     0.35500
C317        C  0.36995057  0.97775096  0.96830356     0.35500
C318        C  0.36694958  0.95249937  0.96695681     0.35500
C319        C  0.38266379  0.00874702  0.01204740    -0.22000
C320        C  0.38426602  0.00921074  0.99595613    -0.22000
C321        C  0.37543777  0.91590584  0.00700800    -0.22000
C322        C  0.37572667  0.91644629  0.99084125    -0.22000
C323        C  0.35927517  0.97004385  0.04883819    -0.23000
C324        C  0.35850079  0.95391774  0.04803920    -0.23000
C325        C  0.36611182  0.97435614  0.95282185    -0.23000
C326        C  0.36415355  0.95833644  0.95197727    -0.23000
C327        C  0.36951608  0.99070364  0.03087186    -0.18400
C328        C  0.37476819  0.99263537  0.97386398    -0.18400
C329        C  0.36844512  0.93639655  0.97079430    -0.18400
C330        C  0.36669941  0.93420518  0.02810818    -0.18400
H331        H  0.38743837  0.01724405  0.02024104     0.14500
H332        H  0.39046792  0.01818235  0.98937325     0.24100
H333        H  0.37944032  0.90613405  0.01413228     0.14500
H334        H  0.38001459  0.90721882  0.98317680     0.14500
H335        H  0.35657463  0.97714239  0.05906298     0.12800
H336        H  0.35509629  0.94611942  0.05752591     0.12800
H337        H  0.36524399  0.98251983  0.94307504     0.12800
H338        H  0.36152141  0.95169451  0.94143523     0.12800
H339        H  0.36252989  0.97829308  0.00102634     0.26100
H340        H  0.35994462  0.95003398  0.99977499     0.26100
N341        N  0.97065811  0.96570815  0.61072090    -0.36700
N342        N  0.99567111  0.98902081  0.61059862    -0.57300
N343        N  0.01835505  0.96336138  0.60881381    -0.36700
N344        N  0.99335241  0.94008477  0.61126223    -0.57300
C345        C  0.96247296  0.97897030  0.61395828     0.26900
C346        C  0.96130343  0.95337316  0.61441057     0.26900
C347        C  0.02802129  0.97576392  0.61129156     0.26900
C348        C  0.02681036  0.95012739  0.61151672     0.26900
C349        C  0.98325578  0.99851103  0.60759056     0.35500
C350        C  0.00869108  0.99731668  0.60677257     0.35500
C351        C  0.98008256  0.93182105  0.60836445     0.35500
C352        C  0.00548012  0.93056515  0.60735334     0.35500
C353        C  0.94780237  0.97502803  0.61991143    -0.22000
C354        C  0.94706773  0.95885503  0.62020756    -0.22000
C355        C  0.04277092  0.97034110  0.61569999    -0.22000
C356        C  0.04200656  0.95416094  0.61583229    -0.22000
C357        C  0.98842112  0.01296637  0.60205521    -0.23000
C358        C  0.00453893  0.01221870  0.60156218    -0.23000
C359        C  0.98379966  0.91694506  0.60278944    -0.23000
C360        C  0.99989862  0.91613787  0.60218099    -0.23000
C361        C  0.96735631  0.99444379  0.61028452    -0.18400
C362        C  0.96467672  0.93741668  0.61109811    -0.18400
C363        C  0.02153868  0.93455779  0.60885829    -0.18400
C364        C  0.02429020  0.99173150  0.60827437    -0.18400
H365        H  0.93846652  0.98298470  0.62335030     0.14500
H366        H  0.93704673  0.95191277  0.62389275     0.14500
H367        H  0.05311208  0.97731755  0.61824193     0.14500
H368        H  0.05163517  0.94625713  0.61849526     0.14500
H369        H  0.98134209  0.02297965  0.59860800     0.12800
H370        H  0.01228019  0.02153856  0.59764050     0.12800
H371        H  0.97578164  0.90767293  0.59936248     0.12800
H372        H  0.00669475  0.90612442  0.59820491     0.12800
H373        H  0.98099870  0.96512325  0.60424980     0.26100
H374        H  0.00737215  0.96384533  0.60352640     0.26100
N375        N  0.02290368  0.96449096  0.38539348    -0.36700
N376        N  0.99659463  0.98628941  0.38613582    -0.57300
N377        N  0.97445823  0.96075960  0.38179030    -0.36700
N378        N  0.00084904  0.93889018  0.38232497    -0.57300
C379        C  0.02983664  0.97764382  0.39100130     0.26900
C380        C  0.03206949  0.95217569  0.38963859     0.26900
C381        C  0.96473067  0.97230283  0.38691784     0.26900
C382        C  0.96700019  0.94691048  0.38418657     0.26900
C383        C  0.00856446  0.99664342  0.38484235     0.35500
C384        C  0.98324070  0.99458990  0.38386038     0.35500
C385        C  0.01445836  0.93090229  0.38044478     0.35500
C386        C  0.98923876  0.92897747  0.37798926     0.35500
C387        C  0.04365036  0.97368919  0.39874104    -0.22000
C388        C  0.04504149  0.95758539  0.39791476    -0.22000
C389        C  0.95080515  0.96573961  0.39229516    -0.22000
C390        C  0.95222864  0.94969889  0.39055804    -0.22000
C391        C  0.00281266  0.01152981  0.38139971    -0.23000
C392        C  0.98672084  0.01024302  0.38090204    -0.23000
C393        C  0.01151352  0.91594555  0.37465673    -0.23000
C394        C  0.99550877  0.91472686  0.37308105    -0.23000
C395        C  0.02432316  0.99315550  0.38870596    -0.18400
C396        C  0.02921737  0.93626748  0.38576505    -0.18400
C397        C  0.97309641  0.93186427  0.38050535    -0.18400
C398        C  0.96801873  0.98860254  0.38653493    -0.18400
H399        H  0.05183709  0.98157641  0.40447262     0.14500
H400        H  0.05451344  0.95067077  0.40288231     0.14500
H401        H  0.94070490  0.97185151  0.39707677     0.14500
H402        H  0.94344661  0.94107006  0.39381287     0.14500
H403        H  0.00946569  0.02229916  0.38000236     0.12800
H404        H  0.97849176  0.01979139  0.37903949     0.12800
H405        H  0.01997353  0.90671291  0.37231135     0.12800
H406        H  0.98917351  0.90433917  0.36932348     0.12800
H407        H  0.01332767  0.96414625  0.37778193     0.26100
H408        H  0.98503849  0.96227025  0.37583340     0.26100
C409        C  0.64760099  0.86817257  0.65098312     0.80100
N410        N  0.65452567  0.88263925  0.65234738    -0.78200
C411        C  0.64989534  0.89468675  0.64280138     0.82600
N412        N  0.63842448  0.89214139  0.63205232    -0.78100
C413        C  0.63123041  0.87802107  0.63076873     0.82700
N414        N  0.63583062  0.86606608  0.64031641    -0.79800
C415        C  0.65695705  0.06235551  0.64446650     0.80100
N416        N  0.64586367  0.06661317  0.63379843    -0.78200
C417        C  0.64020175  0.05611535  0.62321781     0.82600
N418        N  0.64555413  0.04106594  0.62356909    -0.78100
C419        C  0.65633593  0.03643227  0.63444187     0.82700
N420        N  0.66208482  0.04715849  0.64486110    -0.79800
C421        C  0.90305528  0.61295720  0.65411783     0.80100
N422        N  0.89760571  0.60334430  0.64254522    -0.78200
C423        C  0.90766832  0.59569851  0.63283250     0.82600
N424        N  0.92332399  0.59791433  0.63463916    -0.78100
C425        C  0.92912369  0.60742590  0.64606516     0.82700
N426        N  0.91890711  0.61486391  0.65597794    -0.79800
C427        C  0.10039486  0.60473237  0.64900809     0.80100
N428        N  0.10611675  0.59570496  0.63709417    -0.78200
C429        C  0.09626071  0.58830031  0.62700259     0.82600
N430        N  0.08053912  0.58996493  0.62896361    -0.78100
C431        C  0.07451613  0.59891141  0.64074851     0.82700
N432        N  0.08452754  0.60647372  0.65071796    -0.79800
C433        C  0.64020080  0.61048981  0.90481868     0.80100
N434        N  0.64018541  0.61500281  0.92021136    -0.78200
C435        C  0.63107370  0.60730515  0.93089191     0.82600
N436        N  0.62214527  0.59494393  0.92612550    -0.78100
C437        C  0.62220188  0.59018404  0.91087654     0.82700
N438        N  0.63117078  0.59807723  0.90025820    -0.79800
C439        C  0.64276698  0.61609953  0.10068715     0.80100
N440        N  0.63160540  0.60575942  0.10555755    -0.78200
C441        C  0.62081172  0.59997727  0.09535632     0.82600
N442        N  0.62141010  0.60447245  0.08003851    -0.78100
C443        C  0.63262728  0.61462068  0.07483341     0.82700
N444        N  0.64325231  0.62055826  0.08528188    -0.79800
C445        C  0.90392938  0.61330922  0.35595242     0.80100
N446        N  0.91944509  0.61474659  0.35207315    -0.78200
C447        C  0.93053967  0.60602242  0.35965289     0.82600
N448        N  0.92597531  0.59603041  0.37124024    -0.78100
C449        C  0.91064494  0.59448431  0.37533080     0.82700
N450        N  0.89965206  0.60314221  0.36760290    -0.79800
C451        C  0.09978047  0.60084050  0.34352235     0.80100
N452        N  0.10480494  0.59051202  0.35473603    -0.78200
C453        C  0.09447742  0.58074790  0.36207276     0.82600
N454        N  0.07904732  0.58138364  0.35801849    -0.78100
C455        C  0.07376017  0.59178556  0.34710648     0.82700
N456        N  0.08417281  0.60156934  0.33990444    -0.79800
C457        C  0.64952692  0.86676805  0.35311443     0.80100
N458        N  0.63920985  0.86207045  0.36443172    -0.78200
C459        C  0.62854018  0.87231283  0.37044002     0.82600
N460        N  0.62833909  0.88733621  0.36506692    -0.78100
C461        C  0.63859111  0.89230072  0.35388210     0.82700
N462        N  0.64922322  0.88194409  0.34788564    -0.79800
C463        C  0.65613533  0.06179629  0.35069737     0.80100
N464        N  0.64566933  0.06657408  0.36179796    -0.78200
C465        C  0.63485968  0.05645023  0.36774064     0.82600
N466        N  0.63481178  0.04129988  0.36267066    -0.78100
C467        C  0.64535523  0.03618403  0.35176720     0.82700
N468        N  0.65593834  0.04656576  0.34567268    -0.79800
C469        C  0.90315542  0.32141158  0.65638136     0.80100
N470        N  0.89968376  0.33226062  0.64506229    -0.78200
C471        C  0.91118568  0.34148234  0.63885034     0.82600
N472        N  0.92615452  0.33960991  0.64397517    -0.78100
C473        C  0.92994123  0.32863570  0.65493003     0.82700
N474        N  0.91834586  0.31956250  0.66121246    -0.79800
C475        C  0.09953131  0.32563603  0.65784640     0.80100
N476        N  0.08397636  0.32182461  0.65850548    -0.78200
C477        C  0.07367008  0.32826860  0.64805076     0.82600
N478        N  0.07913705  0.33828720  0.63678080    -0.78100
C479        C  0.09459563  0.34224564  0.63609369     0.82700
N480        N  0.10462850  0.33599697  0.64679575    -0.79800
C481        C  0.35112997  0.86768669  0.65425836     0.80100
N482        N  0.34564470  0.88278559  0.65468667    -0.78200
C483        C  0.35196728  0.89391221  0.64500889     0.82600
N484        N  0.36374351  0.88985433  0.63499350    -0.78100
C485        C  0.36945197  0.87495470  0.63461775     0.82700
N486        N  0.36311387  0.86396962  0.64432197    -0.79800
C487        C  0.34891586  0.06384960  0.63774161     0.80100
N488        N  0.35945173  0.06877658  0.62680267    -0.78200
C489        C  0.36712836  0.05842135  0.61748950     0.82600
N490        N  0.36396400  0.04288016  0.61898407    -0.78100
C491        C  0.35337440  0.03754909  0.62973301     0.82700
N492        N  0.34578923  0.04813470  0.63917165    -0.79800
C493        C  0.63615736  0.30903554  0.90491765     0.80100
N494        N  0.63757368  0.30517508  0.92044297    -0.78200
C495        C  0.62831732  0.31233375  0.93139458     0.82600
N496        N  0.61803513  0.32366073  0.92676930    -0.78100
C497        C  0.61680447  0.32795967  0.91145409     0.82700
N498        N  0.62579153  0.32046717  0.90057107    -0.79800
C499        C  0.64790814  0.31995188  0.09975474     0.80100
N500        N  0.63800126  0.33201309  0.10340940    -0.78200
C501        C  0.62842782  0.33836900  0.09227672     0.82600
N502        N  0.62886730  0.33253566  0.07741865    -0.78100
C503        C  0.63872728  0.32058568  0.07350137     0.82700
N504        N  0.64824753  0.31434400  0.08473840    -0.79800
C505        C  0.35015690  0.61032434  0.90256546     0.80100
N506        N  0.34787606  0.61354856  0.91812560    -0.78200
C507        C  0.35669853  0.60624046  0.92931736     0.82600
N508        N  0.36777652  0.59566069  0.92478241    -0.78100
C509        C  0.37016180  0.59220879  0.90938679     0.82700
N510        N  0.36131721  0.59962379  0.89831887    -0.79800
C511        C  0.34861194  0.60667588  0.09857758     0.80100
N512        N  0.34889872  0.61223077  0.08350928    -0.78200
C513        C  0.35908947  0.60596158  0.07285223     0.82600
N514        N  0.36887214  0.59418261  0.07736029    -0.78100
C515        C  0.36850570  0.58835923  0.09219836     0.82700
N516        N  0.35831405  0.59464015  0.10274296    -0.79800
C517        C  0.35503404  0.86935347  0.34758352     0.80100
N518        N  0.36666586  0.86534007  0.35781514    -0.78200
C519        C  0.37299849  0.87620522  0.36763009     0.82600
N520        N  0.36768964  0.89123457  0.36700093    -0.78100
C521        C  0.35624511  0.89560379  0.35674269     0.82700
N522        N  0.34982602  0.88455257  0.34705184    -0.79800
C523        C  0.34601514  0.06561923  0.36182444     0.80100
N524        N  0.34318368  0.04992289  0.36000062    -0.78200
C525        C  0.35136097  0.03918488  0.36868473     0.82600
N526        N  0.36269622  0.04425246  0.37879074    -0.78100
C527        C  0.36589144  0.05982718  0.38040055     0.82700
N528        N  0.35736624  0.07038208  0.37201138    -0.79800
C529        C  0.90305980  0.31887709  0.35443904     0.80100
N530        N  0.91863521  0.31653498  0.35135391    -0.78200
C531        C  0.92978078  0.32515575  0.35905568     0.82600
N532        N  0.92514292  0.33627688  0.36960371    -0.78100
C533        C  0.90968508  0.33871850  0.37271812     0.82700
N534        N  0.89879664  0.32988759  0.36518440    -0.79800
C535        C  0.10019070  0.30779909  0.35962120     0.80100
N536        N  0.08439301  0.30573534  0.35756627    -0.78200
C537        C  0.07404788  0.31296052  0.36747862     0.82600
N538        N  0.07957711  0.32259714  0.37894087    -0.78100
C539        C  0.09518857  0.32524619  0.38067149     0.82700
N540        N  0.10542557  0.31768287  0.37106621    -0.79800
C541        C  0.35259352  0.31148727  0.90067918     0.80100
N542        N  0.34757929  0.31139626  0.91587221    -0.78200
C543        C  0.35269341  0.32253390  0.92614136     0.82600
N544        N  0.36264177  0.33396365  0.92096528    -0.78100
C545        C  0.36774730  0.33415788  0.90581460     0.82700
N546        N  0.36278745  0.32276798  0.89581098    -0.79800
C547        C  0.34951765  0.32193683  0.09650150     0.80100
N548        N  0.36021467  0.33265663  0.10172685    -0.78200
C549        C  0.36865150  0.34147548  0.09144067     0.82600
N550        N  0.36654339  0.33927860  0.07581128    -0.78100
C551        C  0.35617693  0.32849165  0.07027247     0.82700
N552        N  0.34747115  0.31993249  0.08067921    -0.79800
C553        C  0.15559320  0.37086381  0.14341593     0.80100
N554        N  0.15839871  0.38661741  0.14459049    -0.78200
C555        C  0.15002518  0.39701269  0.13569076     0.82600
N556        N  0.13905423  0.39147137  0.12548167    -0.78100
C557        C  0.13607125  0.37584402  0.12428673     0.82700
N558        N  0.14430324  0.36564798  0.13337614    -0.79800
C559        C  0.14384857  0.56681861  0.14696074     0.80100
N560        N  0.14878587  0.55154857  0.14614373    -0.78200
C561        C  0.14156579  0.54129153  0.13617385     0.82600
N562        N  0.12934816  0.54636993  0.12726459    -0.78100
C563        C  0.12424154  0.56144746  0.12804694     0.82700
N564        N  0.13161552  0.57165369  0.13782700    -0.79800
C565        C  0.40435267  0.11187127  0.14654963     0.80100
N566        N  0.39916532  0.10027687  0.13672167    -0.78200
C567        C  0.40944796  0.09010984  0.12992394     0.82600
N568        N  0.42497324  0.09164535  0.13304979    -0.78100
C569        C  0.43050349  0.10314732  0.14259801     0.82700
N570        N  0.42013505  0.11338219  0.14932195    -0.79800
C571        C  0.60175174  0.11711155  0.13884666     0.80100
N572        N  0.58620941  0.12010770  0.14145733    -0.78200
C573        C  0.57495848  0.11259431  0.13288350     0.82600
N574        N  0.57944326  0.10230892  0.12149016    -0.78100
C575        C  0.59485472  0.09923428  0.11870871     0.82700
N576        N  0.60594925  0.10659319  0.12753721    -0.79800
C577        C  0.40219858  0.11840833  0.86055910     0.80100
N578        N  0.39719122  0.10824117  0.87186224    -0.78200
C579        C  0.40756195  0.09984371  0.88056162     0.82600
N580        N  0.42313144  0.10187349  0.87802592    -0.78100
C581        C  0.42851871  0.11195201  0.86684003     0.82700
N582        N  0.41796650  0.12009119  0.85783841    -0.79800
C583        C  0.59775050  0.10033628  0.83953266     0.80100
N584        N  0.60250749  0.08921565  0.84997492    -0.78200
C585        C  0.59206092  0.08193732  0.85956237     0.82600
N586        N  0.57658205  0.08568779  0.85841398    -0.78100
C587        C  0.57152857  0.09678643  0.84802392     0.82700
N588        N  0.58223024  0.10421527  0.83868559    -0.79800
C589        C  0.40206816  0.81620365  0.14541081     0.80100
N590        N  0.39808606  0.82687449  0.13416292    -0.78200
C591        C  0.40927613  0.83465114  0.12588480     0.82600
N592        N  0.42460073  0.83173098  0.12900486    -0.78100
C593        C  0.42894044  0.82118920  0.14019625     0.82700
N594        N  0.41759175  0.81329581  0.14836293    -0.79800
C595        C  0.59837415  0.82224651  0.15520399     0.80100
N596        N  0.58268234  0.82147654  0.15847611    -0.78200
C597        C  0.57233314  0.83060323  0.15029987     0.82600
N598        N  0.57776827  0.84039253  0.13889139    -0.78100
C599        C  0.59329660  0.84107585  0.13536501     0.82700
N600        N  0.60349108  0.83193559  0.14354326    -0.79800
C601        C  0.85000683  0.36963051  0.14300108     0.80100
N602        N  0.84807832  0.38528066  0.14575413    -0.78200
C603        C  0.85626539  0.39607575  0.13722497     0.82600
N604        N  0.86647185  0.39105364  0.12595921    -0.78100
C605        C  0.86846443  0.37547370  0.12306365     0.82700
N606        N  0.86016853  0.36487744  0.13162205    -0.79800
C607        C  0.85048143  0.56597543  0.14670753     0.80100
N608        N  0.86126387  0.57199993  0.13656012    -0.78200
C609        C  0.86963198  0.56251278  0.12687341     0.82600
N610        N  0.86716609  0.54677133  0.12743548    -0.78100
C611        C  0.85659920  0.54045533  0.13763124     0.82700
N612        N  0.84833627  0.55010175  0.14740252    -0.79800
C613        C  0.84709043  0.10902911  0.40452413     0.80100
N614        N  0.85650231  0.09645572  0.40142206    -0.78200
C615        C  0.86598643  0.09032654  0.41272449     0.82600
N616        N  0.86583176  0.09681364  0.42731791    -0.78100
C617        C  0.85628702  0.10919339  0.43076160     0.82700
N618        N  0.84699357  0.11534126  0.41925593    -0.79800
C619        C  0.85300522  0.12164855  0.59779534     0.80100
N620        N  0.86353103  0.11059249  0.60262610    -0.78200
C621        C  0.87463514  0.10498265  0.59262374     0.82600
N622        N  0.87502165  0.11043940  0.57763459    -0.78100
C623        C  0.86445198  0.12124133  0.57245505     0.82700
N624        N  0.85342349  0.12689429  0.58262014    -0.79800
C625        C  0.15188431  0.81815585  0.40384509     0.80100
N626        N  0.14266014  0.83066055  0.40007603    -0.78200
C627        C  0.13370261  0.83791063  0.41109530     0.82600
N628        N  0.13405877  0.83255051  0.42612835    -0.78100
C629        C  0.14336876  0.82021065  0.43025186     0.82700
N630        N  0.15231271  0.81301362  0.41904429    -0.79800
C631        C  0.13501276  0.80602020  0.59799892     0.80100
N632        N  0.13649254  0.80185375  0.58256760    -0.78200
C633        C  0.12647977  0.80784340  0.57158841     0.82600
N634        N  0.11524619  0.81827898  0.57608608    -0.78100
C635        C  0.11392117  0.82292584  0.59129185     0.82700
N636        N  0.12379546  0.81666928  0.60219376    -0.79800
C637        C  0.84811082  0.36512113  0.86264599     0.80100
N638        N  0.84353546  0.38047558  0.86187411    -0.78200
C639        C  0.85090830  0.39153858  0.87079308     0.82600
N640        N  0.86313037  0.38719572  0.88012527    -0.78100
C641        C  0.86803034  0.37201443  0.88070803     0.82700
N642        N  0.86035760  0.36104304  0.87206511    -0.79800
C643        C  0.84810657  0.56188310  0.86036733     0.80100
N644        N  0.85945562  0.56790055  0.86998384    -0.78200
C645        C  0.86775486  0.55838259  0.87974586     0.82600
N646        N  0.86462531  0.54279272  0.87977811    -0.78100
C647        C  0.85353888  0.53642096  0.87028562     0.82700
N648        N  0.84522720  0.54603679  0.86048558    -0.79800
C649        C  0.85632225  0.81164026  0.40472955     0.80100
N650        N  0.86857554  0.82137810  0.40149331    -0.78200
C651        C  0.87401523  0.83158333  0.41245511     0.82600
N652        N  0.86700941  0.83208042  0.42677080    -0.78100
C653        C  0.85487901  0.82232900  0.43032176     0.82700
N654        N  0.84957767  0.81201198  0.41928482    -0.79800
C655        C  0.84378163  0.81543720  0.59902824     0.80100
N656        N  0.84098457  0.81295698  0.58343324    -0.78200
C657        C  0.84741712  0.82265013  0.57241814     0.82600
N658        N  0.85694761  0.83455648  0.57712473    -0.78100
C659        C  0.86027853  0.83686428  0.59255247     0.82700
N660        N  0.85352804  0.82734107  0.60346715    -0.79800
C661        C  0.39725778  0.81983368  0.84974928     0.80100
N662        N  0.39370889  0.83106025  0.86061771    -0.78200
C663        C  0.40500121  0.83698305  0.87025241     0.82600
N664        N  0.41995567  0.83153267  0.86892642    -0.78100
C665        C  0.42378798  0.82050044  0.85801211     0.82700
N666        N  0.41237822  0.81470817  0.84841988    -0.79800
C667        C  0.59155982  0.81005874  0.85621420     0.80100
N668        N  0.57637789  0.80503732  0.85507234    -0.78200
C669        C  0.56544152  0.80998641  0.86566102     0.82600
N670        N  0.56974081  0.82006455  0.87727882    -0.78100
C671        C  0.58469549  0.82551049  0.87831327     0.82700
N672        N  0.59554917  0.82044294  0.86772992    -0.79800
O673        O  0.25906597  0.71317582  0.77832598    -0.88400
C674        C  0.27855353  0.71812106  0.73446506     0.87600
Mg675      Mg  0.24567654  0.69290442  0.78511333     1.58100
O676        O  0.24476808  0.74116123  0.74057273    -0.88200
O677        O  0.25567170  0.73866453  0.77628733    -0.75500
C678        C  0.19689784  0.68076018  0.72572096     0.92600
O679        O  0.27312896  0.68617149  0.75570982    -0.75300
O680        O  0.20463173  0.67342866  0.73620066    -0.82800
Mg681      Mg  0.28164056  0.70887136  0.76753621     1.58000
C682        C  0.20956223  0.74286510  0.70658147     0.92600
O683        O  0.29334491  0.73023548  0.77944779    -0.81100
H684        H  0.23337709  0.75781936  0.75266567    -0.06400
C685        C  0.23825040  0.69974211  0.71780315     0.87500
O686        O  0.22252296  0.70565025  0.77942794    -0.75600
O687        O  0.27432687  0.72274137  0.74760615    -0.88400
O688        O  0.22428982  0.74562755  0.70780435    -0.81200
C689        C  0.27323644  0.76060729  0.71616487     0.92700
C690        C  0.29604838  0.74471962  0.77654972     0.92500
Mg691      Mg  0.21118730  0.71662491  0.73443009     1.58000
O692        O  0.19941217  0.69524570  0.72268402    -0.81100
O693        O  0.21975172  0.73930105  0.74626441    -0.75300
O694        O  0.27732446  0.75702653  0.73017672    -0.81200
O695        O  0.28942857  0.69372601  0.78815028    -0.82900
O696        O  0.21535188  0.66932125  0.77154527    -0.81200
C697        C  0.23272412  0.74667559  0.74656101     0.87000
O698        O  0.21876789  0.70289302  0.75410370    -0.88300
O699        O  0.23364272  0.71241917  0.72330633    -0.88500
O700        O  0.23751838  0.68697588  0.72558661    -0.75500
Mg701      Mg  0.26629917  0.74627545  0.75259669     1.58000
O702        O  0.26126441  0.75438255  0.70963222    -0.82900
H703        H  0.24951260  0.72599560  0.79558003    -0.06600
O704        O  0.24808596  0.68445884  0.76134988    -0.88200
H705        H  0.25945805  0.66763095  0.74947246    -0.06400
H706        H  0.20317869  0.71372662  0.76799913    -0.06600
C707        C  0.26013603  0.67883024  0.75547308     0.86900
C708        C  0.25472595  0.72586607  0.78397154     0.87500
C709        C  0.21425172  0.70752251  0.76712954     0.87600
H710        H  0.24355521  0.69961489  0.70623582    -0.06600
O711        O  0.27011278  0.72018632  0.72228818    -0.75600
Mg712      Mg  0.22676602  0.67940835  0.74924672     1.58000
H713        H  0.28955042  0.71181825  0.73336526    -0.06600
C714        C  0.28250284  0.68272050  0.79562436     0.92600
O715        O  0.23095009  0.67168343  0.79245484    -0.82800
C716        C  0.21881834  0.66599312  0.78575347     0.92600
O717        O  0.28864409  0.75213884  0.76584481    -0.82800
Mg718      Mg  0.24682622  0.73290906  0.71669409     1.58200
O719        O  0.26780211  0.68015048  0.79407593    -0.81200
O720        O  0.20296314  0.73176019  0.71417396    -0.82900
O721        O  0.75720898  0.71093529  0.72500777    -0.88400
C722        C  0.77816999  0.70778888  0.76803026     0.87600
Mg723      Mg  0.74251069  0.73027221  0.71838610     1.58100
O724        O  0.74580214  0.68259051  0.76262851    -0.88200
O725        O  0.75599669  0.68525696  0.72688372    -0.75500
C726        C  0.69393364  0.74025762  0.77895442     0.92600
O727        O  0.76974043  0.73898801  0.74688293    -0.75300
O728        O  0.70034373  0.74806222  0.76786545    -0.82800
Mg729      Mg  0.77975359  0.71690201  0.73483695     1.58000
C730        C  0.71172415  0.67897046  0.79760975     0.92600
O731        O  0.79237153  0.69617376  0.72253488    -0.81100
H732        H  0.73503523  0.66542252  0.75069138    -0.06400
C733        C  0.73668289  0.72384490  0.78521690     0.87500
O734        O  0.72021451  0.71620745  0.72429896    -0.75600
O735        O  0.77397519  0.70279258  0.75502740    -0.88400
O736        O  0.72643620  0.67699612  0.79535527    -0.81200
C737        C  0.77598573  0.66541809  0.78676289     0.92700
C738        C  0.79643766  0.68207331  0.72575903     0.92500
Mg739      Mg  0.71050181  0.70522204  0.76969934     1.58000
O740        O  0.69778633  0.72601363  0.78184667    -0.81100
O741        O  0.72050450  0.68307305  0.75764704    -0.75300
O742        O  0.77983931  0.66932045  0.77278060    -0.81200
O743        O  0.78613461  0.73239653  0.71387259    -0.82900
O744        O  0.71078181  0.75377841  0.73155555    -0.81200
C745        C  0.73391168  0.67647218  0.75690085     0.87000
O746        O  0.71617046  0.71942040  0.74953632    -0.88300
O747        O  0.73308750  0.71085401  0.77973820    -0.88500
O748        O  0.73442814  0.73653299  0.77760256    -0.75500
Mg749      Mg  0.76758463  0.67876973  0.75044028     1.58000
O750        O  0.76353936  0.67066087  0.79327510    -0.82900
H751        H  0.74836625  0.69750472  0.70784376    -0.06600
O752        O  0.74443585  0.73932720  0.74190945    -0.88200
H753        H  0.75513050  0.75657902  0.75379008    -0.06400
H754        H  0.70131671  0.70733591  0.73588936    -0.06600
C755        C  0.75630571  0.74552226  0.74760278     0.86900
C756        C  0.75378958  0.69798192  0.71934106     0.87500
C757        C  0.71199293  0.71420656  0.73661970     0.87600
H758        H  0.74226746  0.72439410  0.79663361    -0.06600
O759        O  0.77008290  0.70535400  0.78037822    -0.75600
Mg760      Mg  0.72278695  0.74348049  0.75411670     1.58000
H761        H  0.78879223  0.71473212  0.76885459    -0.06600
C762        C  0.77819537  0.74312467  0.70704509     0.92600
O763        O  0.72689014  0.75039365  0.71116268    -0.82800
C764        C  0.71490561  0.75682779  0.71739236     0.92600
O765        O  0.79021288  0.67442624  0.73703826    -0.82800
Mg766      Mg  0.74773142  0.69121784  0.78628765     1.58200
O767        O  0.76346823  0.74466102  0.70933983    -0.81200
O768        O  0.70407835  0.68981384  0.79063339    -0.82900
O769        O  0.75308360  0.74096466  0.26190978    -0.88400
C770        C  0.75422072  0.70093439  0.28843121     0.87600
Mg771      Mg  0.73296971  0.74813236  0.24845260     1.58100
O772        O  0.77589378  0.69929876  0.25330539    -0.88200
O773        O  0.77817514  0.73623861  0.25865539    -0.75500
C774        C  0.71213666  0.68483539  0.20832909     0.92600
O775        O  0.72460425  0.72408212  0.27998682    -0.75300
O776        O  0.70614792  0.69701285  0.21467203    -0.82800
Mg777      Mg  0.74875478  0.73455380  0.28606012     1.58000
C778        C  0.77189925  0.66055385  0.22402584     0.92600
O779        O  0.77159514  0.74560049  0.29518622    -0.81100
H780        H  0.79296430  0.70762109  0.23943621    -0.06400
C781        C  0.73141592  0.68079519  0.25102070     0.87500
O782        O  0.74372763  0.73810909  0.22580275    -0.75600
O783        O  0.76013631  0.71249662  0.28188721    -0.88400
O784        O  0.77527753  0.66393190  0.23825234    -0.81200
C785        C  0.79388514  0.67705799  0.28415662     0.92700
C786        C  0.78563674  0.74153864  0.29854011     0.92500
Mg787      Mg  0.74896461  0.69100457  0.22151742     1.58000
O788        O  0.72603085  0.68021004  0.21167130    -0.81100
O789        O  0.77312878  0.70131843  0.22777003    -0.75300
O790        O  0.79270345  0.69191631  0.28607004    -0.81200
O791        O  0.73641800  0.75761076  0.29108711    -0.82900
O792        O  0.70573902  0.73402872  0.22106894    -0.81200
C793        C  0.78124161  0.70275561  0.24022921     0.87000
O794        O  0.73774218  0.71309510  0.22593534    -0.88300
O795        O  0.74446960  0.68434712  0.24566377    -0.88500
O796        O  0.71942441  0.68949130  0.24895074    -0.75500
Mg797      Mg  0.78366756  0.71364972  0.27251550     1.58000
O798        O  0.78566538  0.66972571  0.27399566    -0.82900
H799        H  0.76708037  0.75540819  0.24969810    -0.06600
O800        O  0.72175300  0.72622713  0.25444070    -0.88200
H801        H  0.70476677  0.71774504  0.26833766    -0.06400
H802        H  0.74916621  0.72315423  0.20799086    -0.06600
C803        C  0.71646307  0.72267124  0.26753055     0.86900
C804        C  0.76607535  0.74476522  0.25660831     0.87500
C805        C  0.74359742  0.72464906  0.21933504     0.87600
H806        H  0.73026234  0.67021568  0.25800554    -0.06600
O807        O  0.75394941  0.68751145  0.28188319    -0.75600
Mg808      Mg  0.71417284  0.71215642  0.23503859     1.58000
H809        H  0.74865956  0.70240919  0.29978252    -0.06600
C810        C  0.72561053  0.76463988  0.28349074     0.92600
O811        O  0.71196248  0.75594704  0.23400730    -0.82800
C812        C  0.70431032  0.74882283  0.22330147     0.92600
O813        O  0.79188739  0.72920100  0.29273904    -0.82800
Mg814      Mg  0.76464999  0.67728866  0.25928417     1.58200
O815        O  0.72222719  0.76099408  0.26937013    -0.81200
O816        O  0.76134163  0.66799287  0.21644446    -0.82900
O817        O  0.73863753  0.21228799  0.78125032    -0.88400
C818        C  0.71581883  0.21264901  0.73871698     0.87600
Mg819      Mg  0.75275905  0.23142111  0.78951344     1.58100
O820        O  0.75022002  0.18950708  0.73950604    -0.88200
O821        O  0.74183425  0.18726793  0.77594204    -0.75500
C822        C  0.79675823  0.25211569  0.72799203     0.92600
O823        O  0.72355632  0.24209812  0.76330536    -0.75300
O824        O  0.79041875  0.25795010  0.74024632    -0.82800
Mg825      Mg  0.71548631  0.21811875  0.77257856     1.58000
C826        C  0.78190691  0.19267202  0.70255479     0.92600
O827        O  0.70372771  0.19565299  0.78195062    -0.81100
H828        H  0.76282394  0.17180377  0.74855619    -0.06400
C829        C  0.75453859  0.23371699  0.72192053     0.87500
O830        O  0.77527738  0.21963784  0.78027548    -0.75600
O831        O  0.72143020  0.20678169  0.75077531    -0.88400
O832        O  0.76757019  0.18923468  0.70529369    -0.81200
C833        C  0.71988580  0.17300617  0.71510934     0.92700
C834        C  0.70070006  0.18174962  0.77719200     0.92500
Mg835      Mg  0.78300598  0.21533927  0.73336324     1.58000
O836        O  0.79345176  0.23826542  0.72323469    -0.81100
O837        O  0.77566017  0.19118685  0.74308432    -0.75300
O838        O  0.71691392  0.17491657  0.72969339    -0.81200
O839        O  0.70918112  0.23046188  0.79546077    -0.82900
O840        O  0.78211488  0.25777614  0.77709590    -0.81200
C841        C  0.76281426  0.18358672  0.74374050     0.87000
O842        O  0.77757526  0.22629701  0.75546397    -0.88300
O843        O  0.75951173  0.22045531  0.72532654    -0.88500
O844        O  0.75639317  0.24545344  0.73101958    -0.75500
Mg845      Mg  0.72962708  0.18279294  0.75227920     1.58000
O846        O  0.73137724  0.17992905  0.70843561    -0.82900
H847        H  0.74915734  0.19750007  0.79622125    -0.06600
O848        O  0.74890306  0.24328640  0.76743826    -0.88200
H849        H  0.73676975  0.26140884  0.75862794    -0.06400
H850        H  0.79381657  0.21340489  0.76657841    -0.06600
C851        C  0.73649297  0.24952097  0.76317005     0.86900
C852        C  0.74324533  0.19901993  0.78505826     0.87500
C853        C  0.78279288  0.21970941  0.76734809     0.87600
H854        H  0.74807197  0.23528792  0.71107805    -0.06600
O855        O  0.72310097  0.21218781  0.72567664    -0.75600
Mg856      Mg  0.76922898  0.25016922  0.75441698     1.58000
H857        H  0.70462147  0.21865217  0.73936979    -0.06600
C858        C  0.71672404  0.24018509  0.80402361     0.92600
O859        O  0.76828908  0.25118342  0.79840496    -0.82800
C860        C  0.77956929  0.25859629  0.79188633     0.92600
O861        O  0.70810007  0.17548687  0.76580026    -0.82800
Mg862      Mg  0.74602882  0.20064696  0.71711051     1.58200
O863        O  0.73136130  0.24285777  0.80190749    -0.81200
O864        O  0.78909062  0.20323044  0.71037697    -0.82900
C865        C  0.15256709  0.36693054  0.85323196     0.80100
N866        N  0.15464055  0.38276554  0.85166234    -0.78200
C867        C  0.14721595  0.39290286  0.86163307     0.82600
N868        N  0.13772102  0.38703703  0.87310709    -0.78100
C869        C  0.13546917  0.37132198  0.87471510     0.82700
N870        N  0.14294302  0.36138999  0.86473492    -0.79800
C871        C  0.14172127  0.56330369  0.85540116     0.80100
N872        N  0.12927805  0.56851756  0.86403512    -0.78200
C873        C  0.12046827  0.55831538  0.87262175     0.82600
N874        N  0.12418158  0.54281023  0.87245773    -0.78100
C875        C  0.13651072  0.53735240  0.86392010     0.82700
N876        N  0.14525457  0.54765279  0.85534059    -0.79800
O877        O  0.24939679  0.22239702  0.77694630    -0.88400
C878        C  0.24378549  0.24540696  0.73534975     0.87600
Mg879      Mg  0.27016738  0.20901237  0.78223104     1.58100
O880        O  0.22076741  0.21143338  0.74008631    -0.88200
O881        O  0.22379933  0.21996319  0.77619679    -0.75500
C882        C  0.28027489  0.16345057  0.71962594     0.92600
O883        O  0.27578346  0.23821976  0.75513345    -0.75300
O884        O  0.28841852  0.17014654  0.73028698    -0.82800
Mg885      Mg  0.25330013  0.24580029  0.76825998     1.58000
C886        C  0.21758797  0.17861776  0.70468503     0.92600
O887        O  0.23233081  0.25627137  0.78177521    -0.81100
H888        H  0.20486579  0.19928130  0.75243748    -0.06400
C889        C  0.26157018  0.20538077  0.71540392     0.87500
O890        O  0.25765203  0.18598195  0.77602973    -0.75600
O891        O  0.23920270  0.24034436  0.74820137    -0.88400
O892        O  0.21546059  0.19331827  0.70684368    -0.81200
C893        C  0.20139205  0.24151609  0.71769081     0.92700
C894        C  0.21806873  0.26002370  0.77913037     0.92500
Mg895      Mg  0.24507339  0.17783119  0.73114903     1.58000
O896        O  0.26571853  0.16657384  0.71768676    -0.81100
O897        O  0.22313555  0.18612281  0.74451365    -0.75300
O898        O  0.20490315  0.24448261  0.73196720    -0.81200
O899        O  0.26800886  0.25175447  0.78934222    -0.82900
O900        O  0.29496504  0.17974043  0.76643298    -0.81200
C901        C  0.21568170  0.19902397  0.74574410     0.87000
O902        O  0.25989916  0.18361146  0.75053243    -0.88300
O903        O  0.24914573  0.20098883  0.72155687    -0.88500
O904        O  0.27473109  0.20380145  0.72228856    -0.75500
Mg905      Mg  0.21581404  0.23220792  0.75336888     1.58000
O906        O  0.20754915  0.23003876  0.71027180    -0.82900
H907        H  0.23728607  0.21198990  0.79424064    -0.06600
O908        O  0.27811202  0.21274078  0.75844583    -0.88200
H909        H  0.29413296  0.22541022  0.74675674    -0.06400
H910        H  0.24980435  0.16703225  0.76383074    -0.06600
C911        C  0.28322967  0.22536602  0.75331167     0.86900
C912        C  0.23694624  0.21798413  0.78301733     0.87500
C913        C  0.25572582  0.17828424  0.76339568     0.87600
H914        H  0.26116689  0.21116141  0.70407095    -0.06600
O915        O  0.24183152  0.23767246  0.72271098    -0.75600
Mg916      Mg  0.28317940  0.19189060  0.74503252     1.58000
H917        H  0.25005496  0.25646939  0.73492873    -0.06600
C918        C  0.27945011  0.24463153  0.79578243     0.92600
O919        O  0.29178245  0.19462435  0.78777245    -0.82800
C920        C  0.29852238  0.18334421  0.78058200     0.92600
O921        O  0.21031892  0.25404963  0.76780473    -0.82800
Mg922      Mg  0.22877084  0.21488955  0.71624090     1.58200
O923        O  0.28316011  0.23058824  0.79205995    -0.81200
O924        O  0.22885783  0.17120802  0.71118585    -0.82900
O925        O  0.28077571  0.72336655  0.25374105    -0.88400
C926        C  0.23851365  0.74580386  0.25745342     0.87600
Mg927      Mg  0.28689459  0.70966624  0.23349523     1.58100
O928        O  0.24206055  0.71114809  0.27989831    -0.88200
O929        O  0.27829847  0.72033739  0.27919153    -0.75500
C930        C  0.22450293  0.66546765  0.21762638     0.92600
O931        O  0.26034595  0.73930869  0.22608230    -0.75300
O932        O  0.23592517  0.67232363  0.21080321    -0.82800
Mg933      Mg  0.27204752  0.74680283  0.24919788     1.58000
C934        C  0.20531632  0.67861330  0.27982836     0.92600
O935        O  0.28388036  0.75766041  0.27106409    -0.81100
H936        H  0.25294353  0.69817819  0.29625703    -0.06400
C937        C  0.21953657  0.70694858  0.23774482     0.87500
O938        O  0.27924407  0.68678481  0.24561489    -0.75600
O939        O  0.25122451  0.74075889  0.26241718    -0.88400
O940        O  0.20857206  0.69280540  0.28347976    -0.81200
C941        C  0.21861022  0.74027415  0.29958913     0.92700
C942        C  0.28013718  0.76102008  0.28522118     0.92500
Mg943      Mg  0.23328241  0.67837783  0.25412433     1.58000
O944        O  0.22111295  0.66814879  0.23201462    -0.81100
O945        O  0.24528602  0.68567263  0.27738671    -0.75300
O946        O  0.23272839  0.74429881  0.29639632    -0.81200
O947        O  0.29379347  0.75330722  0.23458039    -0.82900
O948        O  0.27203910  0.68120976  0.20750672    -0.81200
C949        C  0.24689999  0.69842206  0.28506546     0.87000
O950        O  0.25398694  0.68431645  0.24119809    -0.88300
O951        O  0.22467132  0.70183140  0.25035447    -0.88500
O952        O  0.22730271  0.70573304  0.22503353    -0.75500
Mg953      Mg  0.25493398  0.73216546  0.28600542     1.58000
O954        O  0.21199361  0.72874128  0.29274113    -0.82900
H955        H  0.29737736  0.71302393  0.26681962    -0.06600
O956        O  0.26367713  0.71384130  0.22429214    -0.88200
H957        H  0.25337475  0.72639092  0.20726383    -0.06400
H958        H  0.26641737  0.66789132  0.25256909    -0.06600
C959        C  0.25907924  0.72642754  0.21863436     0.86900
C960        C  0.28605956  0.71882563  0.26650768     0.87500
C961        C  0.26647835  0.67908349  0.24650503     0.87600
H962        H  0.20836411  0.71303237  0.23762114    -0.06600
O963        O  0.22582775  0.73803066  0.25899001    -0.75600
Mg964      Mg  0.25034188  0.69351709  0.21787686     1.58000
H965        H  0.23824369  0.75695446  0.25131964    -0.06600
C966        C  0.30052881  0.74557825  0.22361094     0.92600
O967        O  0.29369487  0.69513359  0.21218829    -0.82800
C968        C  0.28649859  0.68420640  0.20492316     0.92600
O969        O  0.26885453  0.75411513  0.29228204    -0.82800
Mg970      Mg  0.21865888  0.71482727  0.27109653     1.58200
O971        O  0.29755238  0.73107948  0.22125570    -0.81200
O972        O  0.21167909  0.67181563  0.26811329    -0.82900
O973        O  0.74612619  0.18520901  0.24453090    -0.88400
C974        C  0.72220962  0.22616613  0.23934515     0.87600
Mg975      Mg  0.75895549  0.17988569  0.26567198     1.58100
O976        O  0.75711949  0.22353101  0.21738742    -0.88200
O977        O  0.74975277  0.18700270  0.21908869    -0.75500
C978        C  0.80287096  0.24340529  0.27896108     0.92600
O979        O  0.72892712  0.20598882  0.27076698    -0.75300
O980        O  0.79593316  0.23259980  0.28676377    -0.82800
Mg981      Mg  0.72234750  0.19315025  0.24776201     1.58000
C982        C  0.78848611  0.26045382  0.21682110     0.92600
O983        O  0.71279115  0.17999590  0.22588343    -0.81100
H984        H  0.77018042  0.21212805  0.20150078    -0.06400
C985        C  0.76127228  0.24717317  0.25919072     0.87500
O986        O  0.78224660  0.18710755  0.25411752    -0.75600
O987        O  0.72775803  0.21367663  0.23435563    -0.88400
O988        O  0.77395157  0.25790714  0.21418332    -0.81200
C989        C  0.72692230  0.24563603  0.19775383     0.92700
C990        C  0.70983639  0.18294804  0.21144937     0.92500
Mg991      Mg  0.78964499  0.23259173  0.24305507     1.58000
O992        O  0.80019064  0.24554979  0.26434224    -0.81100
O993        O  0.78243401  0.21976298  0.22048288    -0.75300
O994        O  0.72460211  0.23102930  0.20033231    -0.81200
O995        O  0.71627221  0.17174047  0.26219023    -0.82900
O996        O  0.78673742  0.19588519  0.29201117    -0.81200
C997        C  0.76985895  0.21844310  0.21254134     0.87000
O998        O  0.78402861  0.21259332  0.25721059    -0.88300
O999        O  0.76606738  0.24131342  0.24678196    -0.88500
O1000       O  0.76258343  0.24003493  0.27224314    -0.75500
Mg1001     Mg  0.73710387  0.20964308  0.21118217     1.58000
O1002       O  0.73769454  0.25326230  0.20484701    -0.82900
H1003       H  0.75767777  0.16873752  0.23231737    -0.06600
O1004       O  0.75438480  0.20344415  0.27404846    -0.88200
H1005       H  0.74072913  0.21447595  0.28972244    -0.06400
H1006       H  0.80121009  0.19991947  0.24733236    -0.06600
C1007       C  0.74141529  0.20810681  0.27872937     0.86900
C1008       C  0.75131892  0.17975973  0.23208261     0.87500
C1009       C  0.78975157  0.19995506  0.25285776     0.87600
H1010       H  0.75535398  0.25843547  0.25884561    -0.06600
O1011       O  0.72966587  0.23906787  0.23830240    -0.75600
Mg1012     Mg  0.77468794  0.21732002  0.28034412     1.58000
H1013       H  0.71095570  0.22599611  0.24527466    -0.06600
C1014       C  0.72309766  0.16554658  0.27397231     0.92600
O1015       O  0.77279915  0.17413032  0.28755934    -0.82800
C1016       C  0.78350290  0.18150527  0.29497056     0.92600
O1017       O  0.71612889  0.19454798  0.20434335    -0.82800
Mg1018     Mg  0.75249978  0.24691964  0.22625708     1.58200
O1019       O  0.73711316  0.16925332  0.27781062    -0.81200
O1020       O  0.79592398  0.25340905  0.22774751    -0.82900
C1021       C  0.14844351  0.11092577  0.40059346     0.80100
N1022       N  0.15187271  0.11344810  0.41603691    -0.78200
C1023       C  0.14262165  0.10717337  0.42747859     0.82600
N1024       N  0.13017829  0.09805868  0.42343964    -0.78100
C1025       C  0.12703811  0.09485979  0.40812736     0.82700
N1026       N  0.13612038  0.10147182  0.39676532    -0.79800
C1027       C  0.14432643  0.11462672  0.59724732     0.80100
N1028       N  0.14758569  0.11744602  0.58182891    -0.78200
C1029       C  0.14157852  0.10799380  0.57044539     0.82600
N1030       N  0.13194449  0.09592183  0.57450846    -0.78100
C1031       C  0.12812812  0.09327826  0.58980102     0.82700
N1032       N  0.13449219  0.10259747  0.60111884    -0.79800
O1033       O  0.22088266  0.22317386  0.24430275    -0.88400
C1034       C  0.26288730  0.24650421  0.24292760     0.87600
Mg1035     Mg  0.21386163  0.20863301  0.26377106     1.58100
O1036       O  0.26094148  0.21305171  0.21862018    -0.88200
O1037       O  0.22444857  0.22138863  0.21883597    -0.75500
C1038       C  0.27604805  0.16391230  0.27912828     0.92600
O1039       O  0.24033204  0.23798265  0.27303900    -0.75300
O1040       O  0.26463357  0.17069804  0.28605144    -0.82800
Mg1041     Mg  0.22923974  0.24640014  0.24989052     1.58000
C1042       C  0.29745648  0.18067878  0.21837872     0.92600
O1043       O  0.21777600  0.25785306  0.22807653    -0.81100
H1044       H  0.25032792  0.20100426  0.20144159    -0.06400
C1045       C  0.28142957  0.20662389  0.26156541     0.87500
O1046       O  0.22203048  0.18636305  0.25091464    -0.75600
O1047       O  0.25054686  0.24140775  0.23718215    -0.88400
O1048       O  0.29522130  0.19537396  0.21613121    -0.81200
C1049       C  0.28468510  0.24389234  0.20188078     0.92700
C1050       C  0.22177564  0.26185454  0.21415523     0.92500
Mg1051     Mg  0.26820760  0.17891057  0.24307726     1.58000
O1052       O  0.27964898  0.16705760  0.26486719    -0.81100
O1053       O  0.25693769  0.18759650  0.22006827    -0.75300
O1054       O  0.27008039  0.24669126  0.20403187    -0.81200
O1055       O  0.20708052  0.25189657  0.26381877    -0.82900
O1056       O  0.22808662  0.17907545  0.28890812    -0.81200
C1057       C  0.25602823  0.20064729  0.21280953     0.87000
O1058       O  0.24719259  0.18409998  0.25588517    -0.88300
O1059       O  0.27689663  0.20216383  0.24848284    -0.88500
O1060       O  0.27315987  0.20470663  0.27386971    -0.75500
Mg1061     Mg  0.24779478  0.23392291  0.21313756     1.58000
O1062       O  0.29156952  0.23242116  0.20867087    -0.82900
H1063       H  0.20509322  0.21307736  0.23010236    -0.06600
O1064       O  0.23668961  0.21248334  0.27409737    -0.88200
H1065       H  0.24671233  0.22446970  0.29166856    -0.06400
H1066       H  0.23532239  0.16791160  0.24364284    -0.06600
C1067       C  0.24126593  0.22487908  0.28017831     0.86900
C1068       C  0.21624381  0.21910328  0.23113306     0.87500
C1069       C  0.23492803  0.17887486  0.25008881     0.87600
H1070       H  0.29251594  0.21278562  0.26247710    -0.06600
O1071       O  0.27576470  0.23899595  0.24179745    -0.75600
Mg1072     Mg  0.25007073  0.19201242  0.27977663     1.58000
H1073       H  0.26261915  0.25740852  0.24947880    -0.06600
C1074       C  0.19985960  0.24412599  0.27441827     0.92600
O1075       O  0.20627317  0.19268911  0.28383470    -0.82800
C1076       C  0.21339629  0.18148508  0.29079979     0.92600
O1077       O  0.23361649  0.25578403  0.20726532    -0.82800
Mg1078     Mg  0.28390711  0.21660623  0.22892027     1.58200
O1079       O  0.20264146  0.22957158  0.27683837    -0.81200
O1080       O  0.28992745  0.17305112  0.22885525    -0.82900
C1081       C  0.15781435  0.11855390  0.38799186    -0.03300
C1082       C  0.17137319  0.12731744  0.39156935    -0.05900
C1083       C  0.17997354  0.13466941  0.37959519    -0.21000
C1084       C  0.17514770  0.13356358  0.36382472     0.24700
C1085       C  0.16174581  0.12454824  0.36022866    -0.18500
C1086       C  0.15317360  0.11719755  0.37216844    -0.08500
C1087       C  0.18455182  0.14163997  0.35145096    -0.18800
C1088       C  0.17871195  0.14559150  0.33722653    -0.23600
C1089       C  0.18791765  0.15409620  0.32502483     0.26800
C1090       C  0.17982889  0.16306504  0.31374666    -0.20400
C1091       C  0.18804913  0.17171362  0.30240559    -0.10000
C1092       C  0.20456875  0.17135939  0.30194103    -0.10600
C1093       C  0.21264637  0.16182823  0.31280837    -0.03500
C1094       C  0.20442860  0.15330405  0.32424349    -0.18600
H1095       H  0.17535577  0.12851549  0.40361347     0.10500
H1096       H  0.19035445  0.14138117  0.38268445     0.10600
H1097       H  0.15791336  0.12289453  0.34821247     0.10200
H1098       H  0.14286454  0.11044850  0.36894643     0.11300
H1099       H  0.19642465  0.14516479  0.35454081     0.11400
H1100       H  0.16639755  0.14345809  0.33466981     0.13300
H1101       H  0.16710058  0.16367565  0.31393581     0.09900
H1102       H  0.18146996  0.17881649  0.29411316     0.11900
H1103       H  0.22537149  0.16121709  0.31271324     0.08600
H1104       H  0.21105751  0.14608103  0.33236700     0.11300
C1105       C  0.14633611  0.10943624  0.44423846    -0.03300
C1106       C  0.16193815  0.10870987  0.44959550    -0.05900
C1107       C  0.16517398  0.10909446  0.46574714    -0.21000
C1108       C  0.15291422  0.11082362  0.47666245     0.24700
C1109       C  0.13735465  0.11203622  0.47123917    -0.18500
C1110       C  0.13408752  0.11116116  0.45517687    -0.08500
C1111       C  0.15618908  0.10986832  0.49370768    -0.18800
C1112       C  0.14875696  0.11916870  0.50410957    -0.23600
C1113       C  0.14915749  0.11624413  0.52125769     0.26800
C1114       C  0.14813560  0.12896543  0.53173256    -0.20400
C1115       C  0.14641095  0.12632193  0.54790104    -0.10000
C1116       C  0.14513515  0.11090173  0.55372222    -0.10600
C1117       C  0.14643018  0.09818420  0.54326945    -0.03500
C1118       C  0.14859242  0.10081495  0.52719949    -0.18600
H1119       H  0.17153133  0.10716524  0.44134465     0.10500
H1120       H  0.17721623  0.10792225  0.46974109     0.10600
H1121       H  0.12766302  0.11299718  0.47946321     0.10200
H1122       H  0.12196011  0.11164563  0.45129209     0.11300
H1123       H  0.16448236  0.10102843  0.49778793     0.11400
H1124       H  0.14160762  0.12890165  0.49987632     0.13300
H1125       H  0.14836424  0.14094116  0.52735121     0.09900
H1126       H  0.14535215  0.13630924  0.55575142     0.11900
H1127       H  0.14551349  0.08619158  0.54751270     0.08600
H1128       H  0.14898844  0.09078243  0.51935336     0.11300
C1129       C  0.20691727  0.17002565  0.69395059    -0.03300
C1130       C  0.20758321  0.15352768  0.69287117    -0.05900
C1131       C  0.19822480  0.14550902  0.68200666    -0.21000
C1132       C  0.18822524  0.15380913  0.67183441     0.24700
C1133       C  0.18712121  0.17026021  0.67326363    -0.18500
C1134       C  0.19636076  0.17827844  0.68423834    -0.08500
C1135       C  0.17909205  0.14493660  0.65994004    -0.18800
C1136       C  0.17503702  0.15105814  0.64589462    -0.23600
C1137       C  0.16676731  0.14180217  0.63364159     0.26800
C1138       C  0.16911611  0.14559466  0.61774368    -0.20400
C1139       C  0.16178385  0.13685226  0.60589844    -0.10000
C1140       C  0.15177921  0.12423498  0.60974564    -0.10600
C1141       C  0.14912449  0.12072747  0.62570126    -0.03500
C1142       C  0.15650270  0.12942316  0.63751801    -0.18600
H1143       H  0.21546840  0.14680994  0.70029852     0.10500
H1144       H  0.19910161  0.13280706  0.68126247     0.10600
H1145       H  0.17912084  0.17695936  0.66595982     0.10200
H1146       H  0.19545316  0.19097867  0.68488721     0.11300
H1147       H  0.17674416  0.13261011  0.66237132     0.11400
H1148       H  0.17885531  0.16286045  0.64280560     0.13300
H1149       H  0.17685934  0.15518123  0.61447447     0.09900
H1150       H  0.16403521  0.13994238  0.59373840     0.11900
H1151       H  0.14138343  0.11119737  0.62911010     0.08600
H1152       H  0.15400282  0.12651029  0.64966313     0.11300
C1153       C  0.16081556  0.35558529  0.84283880    -0.03300
C1154       C  0.16869882  0.36052254  0.82914816    -0.05900
C1155       C  0.17637589  0.34953369  0.81952210    -0.21000
C1156       C  0.17655186  0.33349244  0.82354800     0.24700
C1157       C  0.16851087  0.32856554  0.83712679    -0.18500
C1158       C  0.16074124  0.33946028  0.84661948    -0.08500
C1159       C  0.18447549  0.32197623  0.81305650    -0.18800
C1160       C  0.19077090  0.30844754  0.81845497    -0.23600
C1161       C  0.19773799  0.29627257  0.80805318     0.26800
C1162       C  0.20948823  0.28634578  0.81406548    -0.20400
C1163       C  0.21602499  0.27449150  0.80470681    -0.10000
C1164       C  0.21062868  0.27205982  0.78926627    -0.10600
C1165       C  0.19860110  0.28174273  0.78336180    -0.03500
C1166       C  0.19227631  0.29380172  0.79262213    -0.18600
H1167       H  0.16883962  0.37282637  0.82581392     0.10500
H1168       H  0.18229715  0.35357460  0.80897663     0.10600
H1169       H  0.16791043  0.31624165  0.84030240     0.10200
H1170       H  0.15468920  0.33517919  0.85698931     0.11300
H1171       H  0.18545378  0.32491119  0.80065272     0.11400
H1172       H  0.19124404  0.30632766  0.83105457     0.13300
H1173       H  0.21373580  0.28787910  0.82598748     0.09900
H1174       H  0.22525175  0.26716265  0.80957406     0.11900
H1175       H  0.19427565  0.28016929  0.77147629     0.08600
H1176       H  0.18291975  0.30095502  0.78777689     0.11300
C1177       C  0.14892247  0.41022452  0.85996515    -0.03300
C1178       C  0.15976741  0.41699197  0.84941858    -0.05900
C1179       C  0.16097095  0.43342361  0.84803102    -0.21000
C1180       C  0.15148050  0.44334578  0.85724348     0.24700
C1181       C  0.14049609  0.43651375  0.86756524    -0.18500
C1182       C  0.13933556  0.42023393  0.86898880    -0.08500
C1183       C  0.15247478  0.46074530  0.85544959    -0.18800
C1184       C  0.14894968  0.47047757  0.86746525    -0.23600
C1185       C  0.14674477  0.48775849  0.86612221     0.26800
C1186       C  0.13772919  0.49515196  0.87779218    -0.20400
C1187       C  0.13456182  0.51120377  0.87703034    -0.10000
C1188       C  0.14052557  0.52040607  0.86465856    -0.10600
C1189       C  0.14996220  0.51317000  0.85313901    -0.03500
C1190       C  0.15298757  0.49693218  0.85379713    -0.18600
H1191       H  0.16729814  0.40961975  0.84225322     0.10500
H1192       H  0.16936532  0.43839512  0.83982526     0.10600
H1193       H  0.13243995  0.44368429  0.87433460     0.10200
H1194       H  0.13067268  0.41551656  0.87705875     0.11300
H1195       H  0.15556448  0.46543832  0.84398423     0.11400
H1196       H  0.14645054  0.46538807  0.87892412     0.13300
H1197       H  0.13282446  0.48840438  0.88744564     0.09900
H1198       H  0.12739518  0.51639729  0.88620472     0.11900
H1199       H  0.15476937  0.51999283  0.84350238     0.08600
H1200       H  0.16024150  0.49169855  0.84474540     0.11300
C1201       C  0.15189813  0.57475570  0.84703322    -0.03300
C1202       C  0.16688307  0.57034568  0.84159677    -0.05900
C1203       C  0.17677384  0.58140155  0.83445290    -0.21000
C1204       C  0.17183556  0.59702830  0.83233896     0.24700
C1205       C  0.15679532  0.60143432  0.83769645    -0.18500
C1206       C  0.14695432  0.59041768  0.84494079    -0.08500
C1207       C  0.18285318  0.60850622  0.82502802    -0.18800
C1208       C  0.17797945  0.62153578  0.81741337    -0.23600
C1209       C  0.18882350  0.63289851  0.80971808     0.26800
C1210       C  0.18309687  0.64200606  0.79719678    -0.20400
C1211       C  0.19283081  0.65279482  0.78952463    -0.10000
C1212       C  0.20846759  0.65497018  0.79441291    -0.10600
C1213       C  0.21413371  0.64618137  0.80723241    -0.03500
C1214       C  0.20443183  0.63518579  0.81478555    -0.18600
H1215       H  0.17111268  0.55841707  0.84312354     0.10500
H1216       H  0.18833844  0.57772626  0.83054826     0.10600
H1217       H  0.15270568  0.61345167  0.83670814     0.10200
H1218       H  0.13550667  0.59423420  0.84903683     0.11300
H1219       H  0.19530032  0.60565485  0.82524635     0.11400
H1220       H  0.16546714  0.62355579  0.81587098     0.13300
H1221       H  0.17108359  0.64061162  0.79318078     0.09900
H1222       H  0.18808505  0.65948523  0.77976143     0.11900
H1223       H  0.22613448  0.64762438  0.81125312     0.08600
H1224       H  0.20912431  0.62869159  0.82468331     0.11300
C1225       C  0.60389667  0.80369993  0.84562704    -0.03300
C1226       C  0.61846269  0.81141246  0.84418390    -0.05900
C1227       C  0.63042572  0.80505019  0.83484675    -0.21000
C1228       C  0.62823769  0.79069312  0.82700408     0.24700
C1229       C  0.61355699  0.78312528  0.82813948    -0.18500
C1230       C  0.60149622  0.78960474  0.83730826    -0.08500
C1231       C  0.64137805  0.78412428  0.81750767    -0.18800
C1232       C  0.64357866  0.76855324  0.81543042    -0.23600
C1233       C  0.65691628  0.76185041  0.80628134     0.26800
C1234       C  0.66213477  0.74656539  0.80977034    -0.20400
C1235       C  0.67430570  0.73964786  0.80109745    -0.10000
C1236       C  0.68144187  0.74781979  0.78858417    -0.10600
C1237       C  0.67620299  0.76314133  0.78509039    -0.03500
C1238       C  0.66406866  0.77007418  0.79380841    -0.18600
H1239       H  0.62065095  0.82236946  0.85031315     0.10500
H1240       H  0.64154994  0.81121023  0.83399907     0.10600
H1241       H  0.61130666  0.77227981  0.82185739     0.10200
H1242       H  0.59039611  0.78340869  0.83811531     0.11300
H1243       H  0.65003666  0.79235664  0.81298318     0.11400
H1244       H  0.63578604  0.76031206  0.82132513     0.13300
H1245       H  0.65677195  0.73994483  0.81926103     0.09900
H1246       H  0.67801629  0.72782958  0.80411841     0.11900
H1247       H  0.68132353  0.76972545  0.77544939     0.08600
H1248       H  0.66007329  0.78169867  0.79047173     0.11300
C1249       C  0.38463827  0.81291420  0.83983960    -0.03300
C1250       C  0.36909135  0.81848429  0.84098874    -0.05900
C1251       C  0.35707433  0.81167044  0.83208486    -0.21000
C1252       C  0.36023486  0.79897540  0.82204277     0.24700
C1253       C  0.37580891  0.79358423  0.82056284    -0.18500
C1254       C  0.38788998  0.80050964  0.82935013    -0.08500
C1255       C  0.34705638  0.79174175  0.81318481    -0.18800
C1256       C  0.34641509  0.77622877  0.81000534    -0.23600
C1257       C  0.33295331  0.76864321  0.80182149     0.26800
C1258       C  0.33015549  0.75254819  0.80428667    -0.20400
C1259       C  0.31796608  0.74484094  0.79637216    -0.10000
C1260       C  0.30840273  0.75304702  0.78563764    -0.10600
C1261       C  0.31115694  0.76919218  0.78323195    -0.03500
C1262       C  0.32329195  0.77690995  0.79121107    -0.18600
H1263       H  0.36614110  0.82806541  0.84885621     0.10500
H1264       H  0.34518839  0.81611453  0.83330152     0.10600
H1265       H  0.37868749  0.78410505  0.81255099     0.10200
H1266       H  0.39974224  0.79602857  0.82802472     0.11300
H1267       H  0.33709056  0.79921418  0.81035374     0.11400
H1268       H  0.35572801  0.76860465  0.81432466     0.13300
H1269       H  0.33746264  0.74589588  0.81234652     0.09900
H1270       H  0.31621293  0.73239067  0.79848041     0.11900
H1271       H  0.30407276  0.77585332  0.77499068     0.08600
H1272       H  0.32531662  0.78922311  0.78868007     0.11300
C1273       C  0.44034158  0.81519045  0.85650739    -0.03300
C1274       C  0.44573625  0.80761414  0.84280295    -0.05900
C1275       C  0.46164368  0.80354283  0.84119345    -0.21000
C1276       C  0.47233413  0.80658452  0.85339739     0.24700
C1277       C  0.46687097  0.81396436  0.86717120    -0.18500
C1278       C  0.45109499  0.81822566  0.86868714    -0.08500
C1279       C  0.48935092  0.80325701  0.85119032    -0.18800
C1280       C  0.49860889  0.79910625  0.86336645    -0.23600
C1281       C  0.51609361  0.79958518  0.86317051     0.26800
C1282       C  0.52379252  0.80082124  0.87771538    -0.20400
C1283       C  0.53991918  0.80363923  0.87843322    -0.10000
C1284       C  0.54884689  0.80493143  0.86460866    -0.10600
C1285       C  0.54144852  0.80256364  0.85001278    -0.03500
C1286       C  0.52515036  0.80000474  0.84926573    -0.18600
H1287       H  0.43776238  0.80520662  0.83316546     0.10500
H1288       H  0.46562810  0.79807022  0.83039044     0.10600
H1289       H  0.47487816  0.81697106  0.87660486     0.10200
H1290       H  0.44736483  0.82406976  0.87938389     0.11300
H1291       H  0.49429332  0.80521299  0.83958875     0.11400
H1292       H  0.49307049  0.79680923  0.87466925     0.13300
H1293       H  0.51717913  0.80037508  0.88861262     0.09900
H1294       H  0.54536852  0.80519566  0.88985144     0.11900
H1295       H  0.54811819  0.80342832  0.83918284     0.08600
H1296       H  0.51973654  0.79869165  0.83783219     0.11300
C1297       C  0.83608167  0.80554625  0.61117498    -0.03300
C1298       C  0.82976694  0.79072249  0.60740247    -0.05900
C1299       C  0.82270564  0.78143113  0.61906278    -0.21000
C1300       C  0.82148289  0.78693534  0.63459627     0.24700
C1301       C  0.82775127  0.80176486  0.63834661    -0.18500
C1302       C  0.83503473  0.81091407  0.62679162    -0.08500
C1303       C  0.81434962  0.77675813  0.64688315    -0.18800
C1304       C  0.80618782  0.78264861  0.65912443    -0.23600
C1305       C  0.79939846  0.77255950  0.67163145     0.26800
C1306       C  0.78470899  0.77644652  0.67803520    -0.20400
C1307       C  0.77796525  0.76705390  0.68974637    -0.10000
C1308       C  0.78596123  0.75375630  0.69556683    -0.10600
C1309       C  0.80097766  0.75024145  0.68956772    -0.03500
C1310       C  0.80758786  0.75948998  0.67762935    -0.18600
H1311       H  0.83048182  0.78621195  0.59550361     0.10500
H1312       H  0.81809032  0.76996869  0.61593452     0.10600
H1313       H  0.82736399  0.80617251  0.65029340     0.10200
H1314       H  0.83979203  0.82226076  0.63010730     0.11300
H1315       H  0.81537663  0.76407899  0.64553325     0.11400
H1316       H  0.80369522  0.79518371  0.65960176     0.13300
H1317       H  0.77828338  0.78658012  0.67371110     0.09900
H1318       H  0.76640890  0.77014114  0.69414431     0.11900
H1319       H  0.80746430  0.74012692  0.69382685     0.08600
H1320       H  0.81914319  0.75649540  0.67317478     0.11300
C1321       C  0.84999031  0.80147843  0.39208638    -0.03300
C1322       C  0.85871420  0.79915813  0.37820509    -0.05900
C1323       C  0.85250164  0.79044255  0.36576657    -0.21000
C1324       C  0.83735993  0.78404288  0.36679627     0.24700
C1325       C  0.82874576  0.78595858  0.38082999    -0.18500
C1326       C  0.83503219  0.79457426  0.39337385    -0.08500
C1327       C  0.83101599  0.77536179  0.35305557    -0.18800
C1328       C  0.81558367  0.77498086  0.34962844    -0.23600
C1329       C  0.80899835  0.76698307  0.33556319     0.26800
C1330       C  0.79421070  0.77176907  0.33007280    -0.20400
C1331       C  0.78701702  0.76397802  0.31754810    -0.10000
C1332       C  0.79436637  0.75102795  0.31030150    -0.10600
C1333       C  0.80939098  0.74646340  0.31550883    -0.03500
C1334       C  0.81664015  0.75433802  0.32803661    -0.18600
H1335       H  0.87034078  0.80418928  0.37686716     0.10500
H1336       H  0.85942062  0.78898953  0.35515251     0.10600
H1337       H  0.81720801  0.78075698  0.38218897     0.10200
H1338       H  0.82805805  0.79607755  0.40393586     0.11300
H1339       H  0.83942930  0.77020094  0.34494849     0.11400
H1340       H  0.80741974  0.78150828  0.35698859     0.13300
H1341       H  0.78807202  0.78145458  0.33565615     0.09900
H1342       H  0.77543465  0.76782520  0.31388805     0.11900
H1343       H  0.81532226  0.73647071  0.31026993     0.08600
H1344       H  0.82790432  0.75007391  0.33213783     0.11300
C1345       C  0.84442497  0.82034251  0.55538189    -0.03300
C1346       C  0.83818514  0.80617106  0.54954146    -0.05900
C1347       C  0.83619620  0.80398805  0.53330035    -0.21000
C1348       C  0.84005529  0.81604065  0.52267156     0.24700
C1349       C  0.84622282  0.83021970  0.52855512    -0.18500
C1350       C  0.84836107  0.83233356  0.54467565    -0.08500
C1351       C  0.83882618  0.81328654  0.50545339    -0.18800
C1352       C  0.83596338  0.82512943  0.49531281    -0.23600
C1353       C  0.83876853  0.82405857  0.47812658     0.26800
C1354       C  0.84357675  0.83776612  0.47030840    -0.20400
C1355       C  0.84830942  0.83720400  0.45462427    -0.10000
C1356       C  0.84797589  0.82296713  0.44625812    -0.10600
C1357       C  0.84216193  0.80939017  0.45370626    -0.03500
C1358       C  0.83769948  0.80988534  0.46960112    -0.18600
H1359       H  0.83516728  0.79665993  0.55747561     0.10500
H1360       H  0.83167374  0.79286877  0.52901821     0.10600
H1361       H  0.84991342  0.83955384  0.52070694     0.10200
H1362       H  0.85326734  0.84337573  0.54872280     0.11300
H1363       H  0.84134280  0.80153704  0.50111928     0.11400
H1364       H  0.83323858  0.83672331  0.49996948     0.13300
H1365       H  0.84438267  0.84884642  0.47657067     0.09900
H1366       H  0.85256407  0.84789008  0.44911489     0.11900
H1367       H  0.84173540  0.79828591  0.44746526     0.08600
H1368       H  0.83365963  0.79918313  0.47520005     0.11300
C1369       C  0.83868254  0.57277187  0.85039481    -0.03300
C1370       C  0.82570111  0.56743173  0.84162749    -0.05900
C1371       C  0.81646204  0.57807230  0.83301079    -0.21000
C1372       C  0.82014661  0.59419468  0.83276609     0.24700
C1373       C  0.83321666  0.59948416  0.84138431    -0.18500
C1374       C  0.84235815  0.58892246  0.85003848    -0.08500
C1375       C  0.80973710  0.60540702  0.82422913    -0.18800
C1376       C  0.81503626  0.61905112  0.81808542    -0.23600
C1377       C  0.80471750  0.63077356  0.81021108     0.26800
C1378       C  0.81107810  0.64037086  0.79836557    -0.20400
C1379       C  0.80180561  0.65172382  0.79086308    -0.10000
C1380       C  0.78604689  0.65400974  0.79533824    -0.10600
C1381       C  0.77978891  0.64469811  0.80751468    -0.03500
C1382       C  0.78899244  0.63312156  0.81481523    -0.18600
H1383       H  0.82250446  0.55509551  0.84163825     0.10500
H1384       H  0.80638137  0.57371386  0.82655388     0.10600
H1385       H  0.83616382  0.61186426  0.84187687     0.10200
H1386       H  0.85220761  0.59352928  0.85666681     0.11300
H1387       H  0.79749227  0.60213439  0.82263580     0.11400
H1388       H  0.82756473  0.62153366  0.81826241     0.13300
H1389       H  0.82321819  0.63893056  0.79475694     0.09900
H1390       H  0.80698483  0.65874325  0.78156297     0.11900
H1391       H  0.76767553  0.64615367  0.81119241     0.08600
H1392       H  0.78385906  0.62621454  0.82421138     0.11300
C1393       C  0.84004028  0.35282328  0.85331367    -0.03300
C1394       C  0.82918332  0.35682212  0.84150790    -0.05900
C1395       C  0.82195524  0.34506716  0.83254176    -0.21000
C1396       C  0.82524933  0.32911140  0.83533947     0.24700
C1397       C  0.83611123  0.32510995  0.84714232    -0.18500
C1398       C  0.84339754  0.33682988  0.85602235    -0.08500
C1399       C  0.81762438  0.31699570  0.82536671    -0.18800
C1400       C  0.81513693  0.30209096  0.83016581    -0.23600
C1401       C  0.80695276  0.29037267  0.82019933     0.26800
C1402       C  0.79729237  0.27907295  0.82735416    -0.20400
C1403       C  0.78861799  0.26852713  0.81818824    -0.10000
C1404       C  0.78969656  0.26888320  0.80166912    -0.10600
C1405       C  0.80003452  0.27968464  0.79456603    -0.03500
C1406       C  0.80855092  0.29034795  0.80373184    -0.18600
H1407       H  0.82640458  0.36902159  0.83906190     0.10500
H1408       H  0.81371740  0.34844178  0.82341717     0.10600
H1409       H  0.83930382  0.31297783  0.84933787     0.10200
H1410       H  0.85174362  0.33330949  0.86498466     0.11300
H1411       H  0.81315892  0.32073110  0.81398152     0.11400
H1412       H  0.81803994  0.29866978  0.84212958     0.13300
H1413       H  0.79606716  0.27873763  0.84004359     0.09900
H1414       H  0.78089270  0.26024797  0.82403767     0.11900
H1415       H  0.80126443  0.28017329  0.78188695     0.08600
H1416       H  0.81633365  0.29858761  0.79791263     0.11300
C1417       C  0.84623558  0.40830988  0.87012530    -0.03300
C1418       C  0.83877348  0.41468282  0.85680270    -0.05900
C1419       C  0.83600951  0.43093298  0.85574836    -0.21000
C1420       C  0.84063506  0.44103945  0.86797694     0.24700
C1421       C  0.84706541  0.43443224  0.88175021    -0.18500
C1422       C  0.84998924  0.41831478  0.88271908    -0.08500
C1423       C  0.83908556  0.45840539  0.86602523    -0.18800
C1424       C  0.84921859  0.46836478  0.87303757    -0.23600
C1425       C  0.84886446  0.48583276  0.87206857     0.26800
C1426       C  0.85803176  0.49404555  0.88299756    -0.20400
C1427       C  0.85911339  0.51034776  0.88247722    -0.10000
C1428       C  0.85113599  0.51908485  0.87088635    -0.10600
C1429       C  0.84164266  0.51096954  0.86001393    -0.03500
C1430       C  0.84050620  0.49443699  0.86058268    -0.18600
H1431       H  0.83564267  0.40721847  0.84696289     0.10500
H1432       H  0.83078686  0.43568429  0.84513323     0.10600
H1433       H  0.85000915  0.44167703  0.89179425     0.10200
H1434       H  0.85536237  0.41369662  0.89331989     0.11300
H1435       H  0.82994188  0.46286592  0.85832260     0.11400
H1436       H  0.85863600  0.46343409  0.88012247     0.13300
H1437       H  0.86456059  0.48779041  0.89199867     0.09900
H1438       H  0.86645334  0.51605973  0.89117775     0.11900
H1439       H  0.83537971  0.51733512  0.85092132     0.08600
H1440       H  0.83345174  0.48850936  0.85181981     0.11300
C1441       C  0.14523572  0.79885143  0.61027691    -0.03300
C1442       C  0.15776826  0.78883173  0.60621171    -0.05900
C1443       C  0.16730733  0.78216286  0.61789779    -0.21000
C1444       C  0.16446032  0.78518949  0.63390675     0.24700
C1445       C  0.15197201  0.79527584  0.63796892    -0.18500
C1446       C  0.14249049  0.80198445  0.62631016    -0.08500
C1447       C  0.17503662  0.77807808  0.64596966    -0.18800
C1448       C  0.17073646  0.77569803  0.66107427    -0.23600
C1449       C  0.18108447  0.76808804  0.67298422     0.26800
C1450       C  0.17410009  0.75987946  0.68550049    -0.20400
C1451       C  0.18335288  0.75201049  0.69660205    -0.10000
C1452       C  0.19986016  0.75241801  0.69562579    -0.10600
C1453       C  0.20689046  0.76127482  0.68353060    -0.03500
C1454       C  0.19760736  0.76898671  0.67228050    -0.18600
H1455       H  0.16027478  0.78618848  0.59399886     0.10500
H1456       H  0.17691286  0.77453625  0.61441636     0.10600
H1457       H  0.14963626  0.79831458  0.65010520     0.10200
H1458       H  0.13300015  0.80968717  0.62991663     0.11300
H1459       H  0.18646293  0.77394224  0.64202500     0.11400
H1460       H  0.15879285  0.77839220  0.66469059     0.13300
H1461       H  0.16141012  0.75920516  0.68646538     0.09900
H1462       H  0.17755592  0.74543520  0.70586005     0.11900
H1463       H  0.21957314  0.76190221  0.68250708     0.08600
H1464       H  0.20339759  0.77565137  0.66309982     0.11300
C1465       C  0.16072674  0.80998802  0.39117478    -0.03300
C1466       C  0.16183998  0.81691776  0.37616910    -0.05900
C1467       C  0.16964335  0.80925344  0.36392617    -0.21000
C1468       C  0.17635433  0.79437175  0.36624122     0.24700
C1469       C  0.17541340  0.78740061  0.38126179    -0.18500
C1470       C  0.16771505  0.79517839  0.39363252    -0.08500
C1471       C  0.18475460  0.78688036  0.35285405    -0.18800
C1472       C  0.18596981  0.77120179  0.35094804    -0.23600
C1473       C  0.19409691  0.76392296  0.33724670     0.26800
C1474       C  0.18927856  0.74900989  0.33208120    -0.20400
C1475       C  0.19693407  0.74159762  0.31953405    -0.10000
C1476       C  0.20983315  0.74879863  0.31205781    -0.10600
C1477       C  0.21471477  0.76372024  0.31725354    -0.03500
C1478       C  0.20688932  0.77124743  0.32966413    -0.18600
H1479       H  0.15668653  0.82834033  0.37382572     0.10500
H1480       H  0.17030974  0.81493042  0.35252167     0.10600
H1481       H  0.18082262  0.77609629  0.38355207     0.10200
H1482       H  0.16711566  0.78953793  0.40504933     0.11300
H1483       H  0.18925582  0.79462559  0.34373186     0.11400
H1484       H  0.18010221  0.76340801  0.35921167     0.13300
H1485       H  0.17955177  0.74306235  0.33778653     0.09900
H1486       H  0.19299634  0.73001563  0.31595839     0.11900
H1487       H  0.22467696  0.76951793  0.31181678     0.08600
H1488       H  0.21118749  0.78257327  0.33357999     0.11300
C1489       C  0.12778390  0.80355763  0.55474671    -0.03300
C1490       C  0.11448619  0.80478658  0.54502883    -0.05900
C1491       C  0.11571015  0.80245463  0.52883979    -0.21000
C1492       C  0.13029364  0.79913980  0.52186814     0.24700
C1493       C  0.14353445  0.79711284  0.53164477    -0.18500
C1494       C  0.14224639  0.79922303  0.54798565    -0.08500
C1495       C  0.13103548  0.79895086  0.50438394    -0.18800
C1496       C  0.14413743  0.80180576  0.49591975    -0.23600
C1497       C  0.14345390  0.80551810  0.47882652     0.26800
C1498       C  0.15623506  0.80183323  0.46901579    -0.20400
C1499       C  0.15612684  0.80619685  0.45308318    -0.10000
C1500       C  0.14338404  0.81468621  0.44680735    -0.10600
C1501       C  0.13066312  0.81842787  0.45668895    -0.03500
C1502       C  0.13067230  0.81389125  0.47246436    -0.18600
H1503       H  0.10312641  0.80787867  0.54991500     0.10500
H1504       H  0.10529045  0.80392960  0.52164523     0.10600
H1505       H  0.15490033  0.79413838  0.52676561     0.10200
H1506       H  0.15266497  0.79809125  0.55522950     0.11300
H1507       H  0.11988811  0.79800973  0.49820685     0.11400
H1508       H  0.15552765  0.80241093  0.50162515     0.13300
H1509       H  0.16632971  0.79562586  0.47370991     0.09900
H1510       H  0.16616626  0.80328955  0.44579219     0.11900
H1511       H  0.12068176  0.82500173  0.45225851     0.08600
H1512       H  0.12086884  0.81746451  0.47976721     0.11300
C1513       C  0.84165670  0.12820363  0.60927584    -0.03300
C1514       C  0.83735091  0.11940053  0.62262192    -0.05900
C1515       C  0.82748134  0.12585469  0.63408522    -0.21000
C1516       C  0.82204686  0.14136538  0.63266361     0.24700
C1517       C  0.82599277  0.15007242  0.61913018    -0.18500
C1518       C  0.83562214  0.14349646  0.60748127    -0.08500
C1519       C  0.81247039  0.14820323  0.64556244    -0.18800
C1520       C  0.81403763  0.16329844  0.65007489    -0.23600
C1521       C  0.80571190  0.17011011  0.66383864     0.26800
C1522       C  0.81291722  0.18239158  0.67216573    -0.20400
C1523       C  0.80536174  0.18942331  0.68496460    -0.10000
C1524       C  0.79026912  0.18449167  0.68958498    -0.10600
C1525       C  0.78300892  0.17218277  0.68120877    -0.03500
C1526       C  0.79066470  0.16502823  0.66848541    -0.18600
H1527       H  0.84170485  0.10752756  0.62425904     0.10500
H1528       H  0.82448016  0.11888437  0.64433749     0.10600
H1529       H  0.82165550  0.16195324  0.61755394     0.10200
H1530       H  0.83871952  0.15053839  0.59731351     0.11300
H1531       H  0.80513545  0.14028487  0.65241154     0.11400
H1532       H  0.82267028  0.17067213  0.64418687     0.13300
H1533       H  0.82447586  0.18655061  0.66876477     0.09900
H1534       H  0.81126061  0.19892372  0.69106788     0.11900
H1535       H  0.77132977  0.16818679  0.68436404     0.08600
H1536       H  0.78462873  0.15582663  0.66208245     0.11300
C1537       C  0.83739036  0.11592497  0.39177088    -0.03300
C1538       C  0.83426337  0.10718014  0.37808680    -0.05900
C1539       C  0.82576310  0.11380457  0.36568405    -0.21000
C1540       C  0.82043187  0.12940316  0.36651159     0.24700
C1541       C  0.82311733  0.13804953  0.38039419    -0.18500
C1542       C  0.83150294  0.13135087  0.39290471    -0.08500
C1543       C  0.81223231  0.13614648  0.35261106    -0.18800
C1544       C  0.81226636  0.15163889  0.34917809    -0.23600
C1545       C  0.80524744  0.15860180  0.33467878     0.26800
C1546       C  0.80852269  0.17443310  0.33120405    -0.20400
C1547       C  0.80195542  0.18172594  0.31799926    -0.10000
C1548       C  0.79184539  0.17336193  0.30795610    -0.10600
C1549       C  0.78876287  0.15743601  0.31123644    -0.03500
C1550       C  0.79531401  0.15014062  0.32445144    -0.18600
H1551       H  0.83845150  0.09519613  0.37691048     0.10500
H1552       H  0.82367525  0.10682026  0.35522476     0.10600
H1553       H  0.81872928  0.14993258  0.38168758     0.10200
H1554       H  0.83362514  0.13835416  0.40333635     0.11300
H1555       H  0.80716312  0.12780982  0.34442118     0.11400
H1556       H  0.81843393  0.15965006  0.35697474     0.13300
H1557       H  0.81609301  0.18127125  0.33884149     0.09900
H1558       H  0.80450091  0.19403896  0.31589653     0.11900
H1559       H  0.78095548  0.15066314  0.30378887     0.08600
H1560       H  0.79216895  0.13803056  0.32666676     0.11300
C1561       C  0.85581241  0.11545251  0.44707733    -0.03300
C1562       C  0.84380093  0.12570123  0.45211282    -0.05900
C1563       C  0.84303472  0.13062607  0.46786799    -0.21000
C1564       C  0.85442628  0.12568238  0.47877433     0.24700
C1565       C  0.86651790  0.11561005  0.47363817    -0.18500
C1566       C  0.86720364  0.11060069  0.45803114    -0.08500
C1567       C  0.85284363  0.12983947  0.49572207    -0.18800
C1568       C  0.86550714  0.13111148  0.50517905    -0.23600
C1569       C  0.86497390  0.13081808  0.52268281     0.26800
C1570       C  0.87862409  0.12599472  0.53059121    -0.20400
C1571       C  0.87849464  0.12346462  0.54679316    -0.10000
C1572       C  0.86474414  0.12592875  0.55563185    -0.10600
C1573       C  0.85129098  0.13175722  0.54794920    -0.03500
C1574       C  0.85136079  0.13411572  0.53157405    -0.18600
H1575       H  0.83478257  0.12959332  0.44399772     0.10500
H1576       H  0.83347477  0.13819835  0.47157943     0.10600
H1577       H  0.87517834  0.11104904  0.48178390     0.10200
H1578       H  0.87658769  0.10267469  0.45463025     0.11300
H1579       H  0.84105616  0.13074331  0.50051813     0.11400
H1580       H  0.87711390  0.13064528  0.49984074     0.13300
H1581       H  0.88931455  0.12348993  0.52410566     0.09900
H1582       H  0.88913769  0.11919129  0.55235092     0.11900
H1583       H  0.84055263  0.13387728  0.55447340     0.08600
H1584       H  0.84071348  0.13823961  0.52596780     0.11300
C1585       C  0.78028980  0.64740605  0.21621762    -0.03300
C1586       C  0.79066953  0.63775303  0.22477493    -0.05900
C1587       C  0.79839683  0.62520746  0.21744776    -0.21000
C1588       C  0.79609255  0.62216481  0.20139583     0.24700
C1589       C  0.78547501  0.63161731  0.19288735    -0.18500
C1590       C  0.77770295  0.64411698  0.20021509    -0.08500
C1591       C  0.80508746  0.60922485  0.19384119    -0.18800
C1592       C  0.80931005  0.60974227  0.17860131    -0.23600
C1593       C  0.81985833  0.59807734  0.17108701     0.26800
C1594       C  0.82904445  0.60310710  0.15837242    -0.20400
C1595       C  0.83914596  0.59271139  0.15075677    -0.10000
C1596       C  0.84010071  0.57687568  0.15546737    -0.10600
C1597       C  0.83079047  0.57171112  0.16814028    -0.03500
C1598       C  0.82077750  0.58225267  0.17595558    -0.18600
H1599       H  0.79280698  0.63985490  0.23716174     0.10500
H1600       H  0.80642066  0.61802583  0.22427711     0.10600
H1601       H  0.78300374  0.62931675  0.18061143     0.10200
H1602       H  0.76964752  0.65119515  0.19332408     0.11300
H1603       H  0.80955308  0.59986499  0.20131764     0.11400
H1604       H  0.80612933  0.61994896  0.17159163     0.13300
H1605       H  0.82848580  0.61520474  0.15435751     0.09900
H1606       H  0.84602294  0.59709216  0.14095871     0.11900
H1607       H  0.83123415  0.55956329  0.17198644     0.08600
H1608       H  0.81358015  0.57793126  0.18553386     0.11300
C1609       C  0.79678225  0.27237374  0.20725083    -0.03300
C1610       C  0.81326262  0.27342709  0.20762112    -0.05900
C1611       C  0.82102502  0.28522066  0.19921853    -0.21000
C1612       C  0.81249032  0.29635418  0.19051330     0.24700
C1613       C  0.79600796  0.29515603  0.18988345    -0.18500
C1614       C  0.78824283  0.28325160  0.19815326    -0.08500
C1615       C  0.82124676  0.30863405  0.18178771    -0.18800
C1616       C  0.81512456  0.32273998  0.17794319    -0.23600
C1617       C  0.82421665  0.33468547  0.16905463     0.26800
C1618       C  0.82091396  0.35073186  0.17119191    -0.20400
C1619       C  0.82936496  0.36218342  0.16288878    -0.10000
C1620       C  0.84112141  0.35773672  0.15211931    -0.10600
C1621       C  0.84423802  0.34164326  0.14987593    -0.03500
C1622       C  0.83586033  0.33026252  0.15817921    -0.18600
H1623       H  0.82016918  0.26516381  0.21444370     0.10500
H1624       H  0.83374762  0.28578668  0.19969945     0.10600
H1625       H  0.78908910  0.30323620  0.18288173     0.10200
H1626       H  0.77552572  0.28272057  0.19760803     0.11300
H1627       H  0.83349927  0.30618568  0.17912226     0.11400
H1628       H  0.80344175  0.32594377  0.18199569     0.13300
H1629       H  0.81187664  0.35440668  0.17939986     0.09900
H1630       H  0.82661523  0.37447779  0.16482907     0.11900
H1631       H  0.85312579  0.33776006  0.14160867     0.08600
H1632       H  0.83835521  0.31800057  0.15580508     0.11300
C1633       C  0.85353537  0.52333943  0.13712086    -0.03300
C1634       C  0.85720097  0.51488147  0.12341124    -0.05900
C1635       C  0.85486428  0.49869239  0.12272897    -0.21000
C1636       C  0.84905117  0.49044752  0.13578346     0.24700
C1637       C  0.84508335  0.49888526  0.14949889    -0.18500
C1638       C  0.84723357  0.51524748  0.15010621    -0.08500
C1639       C  0.84790558  0.47308635  0.13439528    -0.18800
C1640       C  0.84728812  0.46299110  0.14659097    -0.23600
C1641       C  0.84942274  0.44583165  0.14414979     0.26800
C1642       C  0.84166850  0.43499840  0.15390009    -0.20400
C1643       C  0.84380573  0.41878545  0.15170623    -0.10000
C1644       C  0.85394750  0.41316812  0.13985795    -0.10600
C1645       C  0.86195211  0.42409743  0.13038218    -0.03500
C1646       C  0.85976180  0.44019556  0.13252381    -0.18600
H1647       H  0.86189592  0.52078098  0.11312735     0.10500
H1648       H  0.85796272  0.49252173  0.11200460     0.10600
H1649       H  0.84031292  0.49299321  0.15971907     0.10200
H1650       H  0.84426503  0.52151072  0.16080305     0.11300
H1651       H  0.84881392  0.46828486  0.12257514     0.11400
H1652       H  0.84580917  0.46720866  0.15854225     0.13300
H1653       H  0.83383179  0.43908553  0.16308795     0.09900
H1654       H  0.83753473  0.41068136  0.15928536     0.11900
H1655       H  0.86998732  0.42025277  0.12126736     0.08600
H1656       H  0.86643897  0.44821749  0.12521604     0.11300
C1657       C  0.69301163  0.75783555  0.21352521    -0.03300
C1658       C  0.68803685  0.75199470  0.19888359    -0.05900
C1659       C  0.67669318  0.76005781  0.19009228    -0.21000
C1660       C  0.66977143  0.77387677  0.19592084     0.24700
C1661       C  0.67493963  0.77992328  0.21042641    -0.18500
C1662       C  0.68652723  0.77202747  0.21908573    -0.08500
C1663       C  0.65757677  0.78191572  0.18633839    -0.18800
C1664       C  0.64552173  0.79010395  0.19261593    -0.23600
C1665       C  0.63334698  0.79789880  0.18275432     0.26800
C1666       C  0.61796908  0.79969538  0.18856241    -0.20400
C1667       C  0.60638781  0.80719428  0.17949896    -0.10000
C1668       C  0.61009483  0.81333043  0.16458073    -0.10600
C1669       C  0.62552924  0.81159656  0.15886798    -0.03500
C1670       C  0.63700073  0.80399511  0.16782023    -0.18600
H1671       H  0.69289744  0.74116372  0.19423560     0.10500
H1672       H  0.67306215  0.75530200  0.17883664     0.10600
H1673       H  0.67015619  0.79080096  0.21502408     0.10200
H1674       H  0.69014469  0.77683921  0.23031826     0.11300
H1675       H  0.65804125  0.78017217  0.17368399     0.11400
H1676       H  0.64408725  0.79048145  0.20531479     0.13300
H1677       H  0.61490486  0.79522801  0.20010692     0.09900
H1678       H  0.59465744  0.80848205  0.18430219     0.11900
H1679       H  0.62883262  0.81624100  0.14746268     0.08600
H1680       H  0.64882205  0.80325439  0.16314785     0.11300
C1681       C  0.38941373  0.80853384  0.15471289    -0.03300
C1682       C  0.37406687  0.81474730  0.15436399    -0.05900
C1683       C  0.36203675  0.80792595  0.16321359    -0.21000
C1684       C  0.36490940  0.79456317  0.17243665     0.24700
C1685       C  0.38020774  0.78817475  0.17273656    -0.18500
C1686       C  0.39236208  0.79515320  0.16400182    -0.08500
C1687       C  0.35181053  0.78815488  0.18209322    -0.18800
C1688       C  0.35064931  0.77291415  0.18621083    -0.23600
C1689       C  0.33721960  0.76658139  0.19546315     0.26800
C1690       C  0.33281659  0.75085208  0.19325935    -0.20400
C1691       C  0.32062178  0.74426158  0.20208036    -0.10000
C1692       C  0.31265144  0.75318323  0.21355605    -0.10600
C1693       C  0.31699912  0.76899867  0.21573515    -0.03500
C1694       C  0.32915591  0.77564654  0.20677086    -0.18600
H1695       H  0.37134087  0.82508195  0.14741259     0.10500
H1696       H  0.35039799  0.81311666  0.16283264     0.10600
H1697       H  0.38291544  0.77806023  0.17999313     0.10200
H1698       H  0.40404097  0.79008642  0.16452355     0.11300
H1699       H  0.34230755  0.79615475  0.18511090     0.11400
H1700       H  0.35931164  0.76457248  0.18187827     0.13300
H1701       H  0.33885621  0.74361186  0.18467229     0.09900
H1702       H  0.31764452  0.73203287  0.20006858     0.11900
H1703       H  0.31120833  0.77615546  0.22454929     0.08600
H1704       H  0.33250198  0.78772152  0.20904165     0.11300
C1705       C  0.44593350  0.81933478  0.14380797    -0.03300
C1706       C  0.45162085  0.80718532  0.15352509    -0.05900
C1707       C  0.46778282  0.80597093  0.15678677    -0.21000
C1708       C  0.47843098  0.81704810  0.15066442     0.24700
C1709       C  0.47273779  0.82890160  0.14064284    -0.18500
C1710       C  0.45675868  0.83004550  0.13731000    -0.08500
C1711       C  0.49552078  0.81587876  0.15421588    -0.18800
C1712       C  0.50460735  0.82885314  0.15519692    -0.23600
C1713       C  0.52208862  0.82891771  0.15576047     0.26800
C1714       C  0.52976224  0.84297698  0.15174830    -0.20400
C1715       C  0.54608879  0.84353755  0.15047193    -0.10000
C1716       C  0.55523186  0.83010589  0.15346229    -0.10600
C1717       C  0.54771786  0.81621196  0.15836156    -0.03500
C1718       C  0.53124545  0.81556985  0.15941629    -0.18600
H1719       H  0.44362265  0.79863210  0.15854942     0.10500
H1720       H  0.47194828  0.79653568  0.16428460     0.10600
H1721       H  0.48064589  0.83723281  0.13513430     0.10200
H1722       H  0.45292099  0.83947650  0.12963837     0.11300
H1723       H  0.50056877  0.80423186  0.15551820     0.11400
H1724       H  0.49894818  0.84029816  0.15441488     0.13300
H1725       H  0.52306091  0.85348245  0.14901577     0.09900
H1726       H  0.55156509  0.85447312  0.14686329     0.11900
H1727       H  0.55452107  0.80570337  0.16077321     0.08600
H1728       H  0.52581809  0.80460651  0.16290287     0.11300
C1729       C  0.60966402  0.10853394  0.82984769    -0.03300
C1730       C  0.62476488  0.10199856  0.82820351    -0.05900
C1731       C  0.63648193  0.11002447  0.82002123    -0.21000
C1732       C  0.63348496  0.12484726  0.81344005     0.24700
C1733       C  0.61823204  0.13123104  0.81460329    -0.18500
C1734       C  0.60641633  0.12310892  0.82272751    -0.08500
C1735       C  0.64664006  0.13307930  0.80547444    -0.18800
C1736       C  0.64734018  0.14878849  0.80359611    -0.23600
C1737       C  0.66126868  0.15685446  0.79681220     0.26800
C1738       C  0.66398364  0.17266076  0.80071314    -0.20400
C1739       C  0.67706618  0.18061531  0.79474016    -0.10000
C1740       C  0.68762686  0.17295413  0.78456715    -0.10600
C1741       C  0.68482325  0.15717106  0.78051824    -0.03500
C1742       C  0.67176702  0.14921503  0.78651498    -0.18600
H1743       H  0.62760979  0.09069265  0.83336964     0.10500
H1744       H  0.64805925  0.10475778  0.81912439     0.10600
H1745       H  0.61533967  0.14241178  0.80924200     0.10200
H1746       H  0.59486022  0.12838684  0.82371360     0.11300
H1747       H  0.65670272  0.12592974  0.80221069     0.11400
H1748       H  0.63796203  0.15613400  0.80820103     0.13300
H1749       H  0.65599114  0.17886127  0.80847662     0.09900
H1750       H  0.67873263  0.19285909  0.79786694     0.11900
H1751       H  0.69259034  0.15101006  0.77250497     0.08600
H1752       H  0.66981218  0.13721865  0.78275022     0.11300
C1753       C  0.31129960  0.17463859  0.78872948    -0.03300
C1754       C  0.31907901  0.16198145  0.78141104    -0.05900
C1755       C  0.33183510  0.15457517  0.78879538    -0.21000
C1756       C  0.33701668  0.15956385  0.80367524     0.24700
C1757       C  0.32925997  0.17227131  0.81094301    -0.18500
C1758       C  0.31652989  0.17963030  0.80360789    -0.08500
C1759       C  0.35074502  0.15161653  0.81116113    -0.18800
C1760       C  0.35275603  0.15117167  0.82688643    -0.23600
C1761       C  0.36596620  0.14302522  0.83496567     0.26800
C1762       C  0.36365764  0.13820722  0.85056869    -0.20400
C1763       C  0.37555170  0.13048795  0.85880676    -0.10000
C1764       C  0.39023694  0.12758906  0.85176078    -0.10600
C1765       C  0.39282909  0.13284861  0.83628671    -0.03500
C1766       C  0.38075079  0.14043016  0.82789627    -0.18600
H1767       H  0.31544345  0.15791512  0.76989561     0.10500
H1768       H  0.33766451  0.14490322  0.78287582     0.10600
H1769       H  0.33320435  0.17687605  0.82213070     0.10200
H1770       H  0.31100853  0.18950073  0.80948944     0.11300
H1771       H  0.35887584  0.14531683  0.80358155     0.11400
H1772       H  0.34373288  0.15618019  0.83441525     0.13300
H1773       H  0.35248423  0.14022284  0.85637284     0.09900
H1774       H  0.37320747  0.12675238  0.87077210     0.11900
H1775       H  0.40403431  0.13079180  0.83057896     0.08600
H1776       H  0.38307635  0.14436862  0.81601033     0.11300
C1777       C  0.44582426  0.11373269  0.86500574    -0.03300
C1778       C  0.45563824  0.10856088  0.87727379    -0.05900
C1779       C  0.47190273  0.10852691  0.87559645    -0.21000
C1780       C  0.47900335  0.11357242  0.86159230     0.24700
C1781       C  0.46931941  0.11941566  0.84941782    -0.18500
C1782       C  0.45283023  0.11955991  0.85116684    -0.08500
C1783       C  0.49639808  0.11167923  0.86044977    -0.18800
C1784       C  0.50523712  0.11352648  0.84740131    -0.23600
C1785       C  0.52221323  0.10908474  0.84728681     0.26800
C1786       C  0.53293607  0.11727272  0.83773672    -0.20400
C1787       C  0.54897458  0.11329977  0.83782007    -0.10000
C1788       C  0.55454774  0.10092721  0.84735320    -0.10600
C1789       C  0.54367520  0.09245699  0.85649510    -0.03500
C1790       C  0.52775472  0.09640770  0.85640098    -0.18600
H1791       H  0.45075009  0.10421898  0.88822008     0.10500
H1792       H  0.47896920  0.10407451  0.88523631     0.10600
H1793       H  0.47431318  0.12362879  0.83850221     0.10200
H1794       H  0.44558652  0.12371644  0.84154242     0.11300
H1795       H  0.50227239  0.10780650  0.87112623     0.11400
H1796       H  0.50014785  0.11822443  0.83668640     0.13300
H1797       H  0.52894003  0.12692068  0.83041836     0.09900
H1798       H  0.55700169  0.12000186  0.83053691     0.11900
H1799       H  0.54742854  0.08268847  0.86377723     0.08600
H1800       H  0.51977611  0.08934032  0.86337458     0.11300
C1801       C  0.61408488  0.12534434  0.14802867    -0.03300
C1802       C  0.61106887  0.14010872  0.15480891    -0.05900
C1803       C  0.62295255  0.14821044  0.16280726    -0.21000
C1804       C  0.63799973  0.14160589  0.16452880     0.24700
C1805       C  0.64097355  0.12669225  0.15796916    -0.18500
C1806       C  0.62915868  0.11870436  0.14972151    -0.08500
C1807       C  0.65049289  0.15103601  0.17235554    -0.18800
C1808       C  0.66295631  0.14469848  0.17983942    -0.23600
C1809       C  0.67519422  0.15451755  0.18758347     0.26800
C1810       C  0.68248865  0.14903309  0.20134806    -0.20400
C1811       C  0.69382006  0.15818619  0.20904484    -0.10000
C1812       C  0.69838328  0.17287896  0.20291076    -0.10600
C1813       C  0.69141865  0.17813505  0.18883912    -0.03500
C1814       C  0.67990361  0.16909748  0.18129717    -0.18600
H1815       H  0.59962767  0.14558689  0.15359274     0.10500
H1816       H  0.62039491  0.15973266  0.16763367     0.10600
H1817       H  0.65251797  0.12138169  0.15875288     0.10200
H1818       H  0.63184146  0.10733392  0.14461883     0.11300
H1819       H  0.64897628  0.16373490  0.17251711     0.11400
H1820       H  0.66377462  0.13201064  0.18115810     0.13300
H1821       H  0.67917330  0.13777380  0.20633544     0.09900
H1822       H  0.69899337  0.15376306  0.21982297     0.11900
H1823       H  0.69466341  0.18938251  0.18378721     0.08600
H1824       H  0.67481051  0.17347179  0.17046825     0.11300
C1825       C  0.39271779  0.12239630  0.15439718    -0.03300
C1826       C  0.39746415  0.13404113  0.16517338    -0.05900
C1827       C  0.38628962  0.14358489  0.17271229    -0.21000
C1828       C  0.37014445  0.14158833  0.16980879     0.24700
C1829       C  0.36542859  0.13020001  0.15877798    -0.18500
C1830       C  0.37655040  0.12072064  0.15122901    -0.08500
C1831       C  0.35849785  0.15156603  0.17832598    -0.18800
C1832       C  0.34384791  0.14651591  0.18174270    -0.23600
C1833       C  0.33221150  0.15574935  0.19100327     0.26800
C1834       C  0.32067930  0.14756682  0.19952942    -0.20400
C1835       C  0.30944873  0.15566460  0.20839572    -0.10000
C1836       C  0.30927000  0.17220348  0.20870067    -0.10600
C1837       C  0.32061872  0.18045477  0.19990063    -0.03500
C1838       C  0.33202625  0.17231702  0.19117979    -0.18600
H1839       H  0.40979406  0.13572530  0.16787432     0.10500
H1840       H  0.39025132  0.15237137  0.18105067     0.10600
H1841       H  0.35315155  0.12866307  0.15580181     0.10200
H1842       H  0.37240563  0.11203123  0.14288758     0.11300
H1843       H  0.36246027  0.16285385  0.18280862     0.11400
H1844       H  0.34051083  0.13459210  0.17858995     0.13300
H1845       H  0.32046693  0.13481467  0.19948007     0.09900
H1846       H  0.30083685  0.14894015  0.21495912     0.11900
H1847       H  0.32077688  0.19320232  0.19986987     0.08600
H1848       H  0.34049415  0.17901066  0.18442325     0.11300
C1849       C  0.44778445  0.10423024  0.14503475    -0.03300
C1850       C  0.45707796  0.09088834  0.14199165    -0.05900
C1851       C  0.47341824  0.09177988  0.14220812    -0.21000
C1852       C  0.48109363  0.10601682  0.14544142     0.24700
C1853       C  0.47188597  0.11934348  0.14915432    -0.18500
C1854       C  0.45533554  0.11841016  0.14903180    -0.08500
C1855       C  0.49853934  0.10622329  0.14359938    -0.18800
C1856       C  0.50822036  0.11841710  0.14666431    -0.23600
C1857       C  0.52533154  0.11751406  0.14284478     0.26800
C1858       C  0.53646555  0.12527528  0.15227665    -0.20400
C1859       C  0.55262360  0.12393494  0.14902371    -0.10000
C1860       C  0.55791573  0.11492527  0.13615355    -0.10600
C1861       C  0.54666834  0.10769578  0.12642110    -0.03500
C1862       C  0.53064345  0.10903042  0.12966080    -0.18600
H1863       H  0.45171195  0.07970820  0.13904919     0.10500
H1864       H  0.48010575  0.08129467  0.13936753     0.10600
H1865       H  0.47730624  0.13057162  0.15165379     0.10200
H1866       H  0.44848665  0.12889731  0.15139253     0.11300
H1867       H  0.50378505  0.09543316  0.13916818     0.11400
H1868       H  0.50378837  0.12899290  0.15226347     0.13300
H1869       H  0.53267706  0.13207964  0.16236827     0.09900
H1870       H  0.56094922  0.12975118  0.15670715     0.11900
H1871       H  0.55021249  0.10088617  0.11624799     0.08600
H1872       H  0.52241377  0.10344808  0.12171171     0.11300
C1873       C  0.21525826  0.65363265  0.20876688    -0.03300
C1874       C  0.22146552  0.64676334  0.19505308    -0.05900
C1875       C  0.21331501  0.63479613  0.18726227    -0.21000
C1876       C  0.19866298  0.62959684  0.19280800     0.24700
C1877       C  0.19231726  0.63661264  0.20641919    -0.18500
C1878       C  0.20056283  0.64847405  0.21432628    -0.08500
C1879       C  0.19071971  0.61644392  0.18444376    -0.18800
C1880       C  0.17507422  0.61405006  0.18482441    -0.23600
C1881       C  0.16723053  0.60140146  0.17568382     0.26800
C1882       C  0.15192854  0.60400128  0.17014981    -0.20400
C1883       C  0.14433865  0.59268450  0.16099037    -0.10000
C1884       C  0.15177350  0.57833501  0.15738830    -0.10600
C1885       C  0.16687927  0.57543534  0.16346030    -0.03500
C1886       C  0.17457490  0.58688877  0.17247968    -0.18600
H1887       H  0.23283290  0.65035330  0.19054959     0.10500
H1888       H  0.21851217  0.62953347  0.17687428     0.10600
H1889       H  0.18123681  0.63268333  0.21128825     0.10200
H1890       H  0.19550747  0.65349104  0.22489914     0.11300
H1891       H  0.19796084  0.60902073  0.17696654     0.11400
H1892       H  0.16757041  0.62235067  0.19098792     0.13300
H1893       H  0.14595275  0.61499540  0.17261694     0.09900
H1894       H  0.13262867  0.59523576  0.15666976     0.11900
H1895       H  0.17287336  0.56445975  0.16099199     0.08600
H1896       H  0.18620370  0.58432944  0.17698597     0.11300
C1897       C  0.16486697  0.35925505  0.15257475    -0.03300
C1898       C  0.17923757  0.36334471  0.15966412    -0.05900
C1899       C  0.18821290  0.35193278  0.16752001    -0.21000
C1900       C  0.18284209  0.33633944  0.16870591     0.24700
C1901       C  0.16844481  0.33230724  0.16166771    -0.18500
C1902       C  0.15958549  0.34361448  0.15373040    -0.08500
C1903       C  0.19268562  0.32429615  0.17670671    -0.18800
C1904       C  0.18638709  0.31173294  0.18406514    -0.23600
C1905       C  0.19584284  0.29914645  0.19163112     0.26800
C1906       C  0.18917647  0.29059039  0.20408652    -0.20400
C1907       C  0.19753560  0.27841150  0.21132879    -0.10000
C1908       C  0.21264482  0.27429343  0.20602694    -0.10600
C1909       C  0.21919235  0.28261963  0.19329788    -0.03500
C1910       C  0.21091141  0.29497460  0.18620529    -0.18600
H1911       H  0.18369378  0.37525814  0.15886954     0.10500
H1912       H  0.19935327  0.35528580  0.17271116     0.10600
H1913       H  0.16415388  0.32031863  0.16190159     0.10200
H1914       H  0.14860529  0.34001852  0.14837005     0.11300
H1915       H  0.20532564  0.32611163  0.17696065     0.11400
H1916       H  0.17368783  0.31087377  0.18516465     0.13300
H1917       H  0.17750414  0.29345227  0.20833907     0.09900
H1918       H  0.19214226  0.27218553  0.22106147     0.11900
H1919       H  0.23082114  0.27973360  0.18895635     0.08600
H1920       H  0.21621397  0.30103046  0.17633141     0.11300
C1921       C  0.15228785  0.41427154  0.13726137    -0.03300
C1922       C  0.16100863  0.42074492  0.14974449    -0.05900
C1923       C  0.16232376  0.43711709  0.15142583    -0.21000
C1924       C  0.15521448  0.44730898  0.14052372     0.24700
C1925       C  0.14649752  0.44080220  0.12805598    -0.18500
C1926       C  0.14510185  0.42452961  0.12643422    -0.08500
C1927       C  0.15611957  0.46463875  0.14288657    -0.18800
C1928       C  0.15531508  0.47483936  0.13076297    -0.23600
C1929       C  0.15326560  0.49213155  0.13245082     0.26800
C1930       C  0.14649365  0.50028047  0.11980559    -0.20400
C1931       C  0.14307360  0.51627062  0.12100200    -0.10000
C1932       C  0.14659534  0.52465317  0.13480865    -0.10600
C1933       C  0.15407524  0.51674154  0.14726402    -0.03500
C1934       C  0.15732143  0.50056796  0.14614491    -0.18600
H1935       H  0.16656859  0.41318642  0.15837102     0.10500
H1936       H  0.16889684  0.44184236  0.16126609     0.10600
H1937       H  0.14030763  0.44822286  0.11976104     0.10200
H1938       H  0.13819165  0.42000969  0.11673341     0.11300
H1939       H  0.15688904  0.46893335  0.15488051     0.11400
H1940       H  0.15494733  0.47021291  0.11885592     0.13300
H1941       H  0.14336319  0.49413633  0.10908041     0.09900
H1942       H  0.13747555  0.52204838  0.11111003     0.11900
H1943       H  0.15696799  0.52293123  0.15801898     0.08600
H1944       H  0.16291903  0.49477598  0.15599797     0.11300
C1945       C  0.34045542  0.31246712  0.10811881    -0.03300
C1946       C  0.32847918  0.30210420  0.10333324    -0.05900
C1947       C  0.32000951  0.29335905  0.11448749    -0.21000
C1948       C  0.32347948  0.29458331  0.13061283     0.24700
C1949       C  0.33536365  0.30502645  0.13539781    -0.18500
C1950       C  0.34372268  0.31383725  0.12430646    -0.08500
C1951       C  0.31412487  0.28537168  0.14223235    -0.18800
C1952       C  0.31995951  0.28060712  0.15621947    -0.23600
C1953       C  0.31067032  0.27152533  0.16797787     0.26800
C1954       C  0.31851795  0.26119209  0.17821430    -0.20400
C1955       C  0.31014886  0.25238289  0.18935662    -0.10000
C1956       C  0.29372849  0.25393352  0.19072742    -0.10600
C1957       C  0.28594491  0.26470339  0.18082102    -0.03500
C1958       C  0.29430133  0.27336264  0.16954480    -0.18600
H1959       H  0.32557895  0.30080580  0.09099347     0.10500
H1960       H  0.31079082  0.28551872  0.11050259     0.10600
H1961       H  0.33803742  0.30667649  0.14773828     0.10200
H1962       H  0.35276032  0.32177472  0.12849132     0.11300
H1963       H  0.30231942  0.28186204  0.13885153     0.11400
H1964       H  0.33226814  0.28272424  0.15889037     0.13300
H1965       H  0.33115114  0.25972106  0.17739912     0.09900
H1966       H  0.31654436  0.24427852  0.19683423     0.11900
H1967       H  0.27332679  0.26627729  0.18160070     0.08600
H1968       H  0.28794003  0.28159919  0.16219714     0.11300
C1969       C  0.28809105  0.25251099  0.80862560    -0.03300
C1970       C  0.28155509  0.26574656  0.81609389    -0.05900
C1971       C  0.28880538  0.27228780  0.82928032    -0.21000
C1972       C  0.30285057  0.26592463  0.83513093     0.24700
C1973       C  0.30946019  0.25271340  0.82764444    -0.18500
C1974       C  0.30213049  0.24607485  0.81451865    -0.08500
C1975       C  0.31004522  0.27323001  0.84920945    -0.18800
C1976       C  0.32553444  0.27256345  0.85232504    -0.23600
C1977       C  0.33269693  0.28137496  0.86551120     0.26800
C1978       C  0.34797744  0.28728531  0.86371588    -0.20400
C1979       C  0.35460988  0.29677680  0.87534930    -0.10000
C1980       C  0.34617951  0.30024159  0.88914635    -0.10600
C1981       C  0.33122037  0.29360940  0.89134182    -0.03500
C1982       C  0.32449435  0.28429558  0.87959755    -0.18600
H1983       H  0.27059031  0.27080694  0.81202112     0.10500
H1984       H  0.28342086  0.28237319  0.83493284     0.10600
H1985       H  0.32003700  0.24721268  0.83210172     0.10200
H1986       H  0.30731671  0.23574045  0.80914839     0.11300
H1987       H  0.30248194  0.28045900  0.85655733     0.11400
H1988       H  0.33342499  0.26673497  0.84414161     0.13300
H1989       H  0.35457669  0.28501872  0.85304147     0.09900
H1990       H  0.36625174  0.30159593  0.87345030     0.11900
H1991       H  0.32449847  0.29605023  0.90189485     0.08600
H1992       H  0.31286417  0.27949106  0.88153041     0.11300
C1993       C  0.34826005  0.32180658  0.94300528    -0.03300
C1994       C  0.34087809  0.30840985  0.94941621    -0.05900
C1995       C  0.33819240  0.30728736  0.96566649    -0.21000
C1996       C  0.34295612  0.31945944  0.97573645     0.24700
C1997       C  0.34937759  0.33323516  0.96918414    -0.18500
C1998       C  0.35206569  0.33436024  0.95304595    -0.08500
C1999       C  0.34182325  0.31757376  0.99308185    -0.18800
C2000       C  0.35344788  0.32297173  0.00238418    -0.23600
C2001       C  0.35361717  0.32303005  0.01987848     0.26800
C2002       C  0.36676341  0.32980063  0.02715189    -0.20400
C2003       C  0.36751616  0.33130912  0.04342090    -0.10000
C2004       C  0.35516732  0.32596268  0.05302367    -0.10600
C2005       C  0.34209002  0.31876403  0.04588502    -0.03500
C2006       C  0.34125843  0.31736955  0.02940736    -0.18600
H2007       H  0.33764988  0.29858685  0.94197374     0.10500
H2008       H  0.33300998  0.29666065  0.97043817     0.10600
H2009       H  0.35259025  0.34309142  0.97659251     0.10200
H2010       H  0.35742263  0.34499367  0.94849390     0.11300
H2011       H  0.33179503  0.31138071  0.99795262     0.11400
H2012       H  0.36372097  0.32804109  0.99668437     0.13300
H2013       H  0.37648108  0.33423665  0.02018358     0.09900
H2014       H  0.37785867  0.33677250  0.04846429     0.11900
H2015       H  0.33238282  0.31455994  0.05299016     0.08600
H2016       H  0.33089556  0.31208693  0.02428902     0.11300
C2017       C  0.18751196  0.25204751  0.28388053    -0.03300
C2018       C  0.18134855  0.26662668  0.27905533    -0.05900
C2019       C  0.16902208  0.27367042  0.28736927    -0.21000
C2020       C  0.16276607  0.26647994  0.30085062     0.24700
C2021       C  0.16900769  0.25195297  0.30581315    -0.18500
C2022       C  0.18122303  0.24480069  0.29738319    -0.08500
C2023       C  0.14949765  0.27426234  0.30917411    -0.18800
C2024       C  0.14708699  0.27279467  0.32474897    -0.23600
C2025       C  0.13470208  0.28167159  0.33326411     0.26800
C2026       C  0.13787793  0.28687112  0.34856942    -0.20400
C2027       C  0.12666998  0.29542789  0.35697287    -0.10000
C2028       C  0.11182160  0.29863669  0.35042020    -0.10600
C2029       C  0.10844256  0.29311419  0.33520528    -0.03500
C2030       C  0.11985053  0.28480973  0.32662115    -0.18600
H2031       H  0.18582474  0.27245998  0.26863968     0.10500
H2032       H  0.16437455  0.28481972  0.28327253     0.10600
H2033       H  0.16423106  0.24589260  0.31594915     0.10200
H2034       H  0.18564692  0.23352397  0.30136574     0.11300
H2035       H  0.14221443  0.28237265  0.30248300     0.11400
H2036       H  0.15532900  0.26600324  0.33177181     0.13300
H2037       H  0.14918438  0.28451037  0.35396126     0.09900
H2038       H  0.12959612  0.29938964  0.36872758     0.11900
H2039       H  0.09709447  0.29540195  0.32988640     0.08600
H2040       H  0.11697669  0.28066085  0.31492585     0.11300
C2041       C  0.89057219  0.30977588  0.34630238    -0.03300
C2042       C  0.87504185  0.31031339  0.35202254    -0.05900
C2043       C  0.86299042  0.30223017  0.34438590    -0.21000
C2044       C  0.86603076  0.29350940  0.33072797     0.24700
C2045       C  0.88158556  0.29279649  0.32499874    -0.18500
C2046       C  0.89374415  0.30083840  0.33274967    -0.08500
C2047       C  0.85274285  0.28480249  0.32338525    -0.18800
C2048       C  0.85245288  0.28016091  0.30823515    -0.23600
C2049       C  0.83907974  0.27127055  0.30121433     0.26800
C2050       C  0.83684558  0.27182475  0.28486711    -0.20400
C2051       C  0.82483731  0.26312611  0.27773684    -0.10000
C2052       C  0.81487216  0.25344697  0.28677667    -0.10600
C2053       C  0.81706352  0.25292120  0.30316203    -0.03500
C2054       C  0.82901692  0.26172104  0.31031122    -0.18600
H2055       H  0.87213438  0.31696291  0.36249969     0.10500
H2056       H  0.85118412  0.30286325  0.34915648     0.10600
H2057       H  0.88448441  0.28583844  0.31474311     0.10200
H2058       H  0.90557683  0.30014546  0.32807703     0.11300
H2059       H  0.84247049  0.28277446  0.33069824     0.11400
H2060       H  0.86204116  0.28346621  0.30047028     0.13300
H2061       H  0.84447577  0.27896674  0.27756038     0.09900
H2062       H  0.82359324  0.26373607  0.26506557     0.11900
H2063       H  0.80968243  0.24552019  0.31045648     0.08600
H2064       H  0.83060217  0.26059176  0.32288906     0.11300
C2065       C  0.94687449  0.32212960  0.35671790    -0.03300
C2066       C  0.95230430  0.31069624  0.34602795    -0.05900
C2067       C  0.96845328  0.30752250  0.34459636    -0.21000
C2068       C  0.97945771  0.31553444  0.35395920     0.24700
C2069       C  0.97405685  0.32736461  0.36419713    -0.18500
C2070       C  0.95801591  0.33058402  0.36557344    -0.08500
C2071       C  0.99651885  0.31166290  0.35274713    -0.18800
C2072       C  0.00621139  0.31291525  0.36524668    -0.23600
C2073       C  0.02359380  0.31059037  0.36503005     0.26800
C2074       C  0.03146277  0.31084606  0.37954079    -0.20400
C2075       C  0.04783791  0.31084790  0.38021267    -0.10000
C2076       C  0.05685730  0.31045270  0.36637834    -0.10600
C2077       C  0.04912824  0.30926262  0.35181850    -0.03500
C2078       C  0.03260074  0.30945322  0.35111335    -0.18600
H2079       H  0.94408666  0.30408206  0.33889363     0.10500
H2080       H  0.97233330  0.29854733  0.33641675     0.10600
H2081       H  0.98221444  0.33426697  0.37111613     0.10200
H2082       H  0.95437223  0.33965649  0.37374813     0.11300
H2083       H  0.00090731  0.30733463  0.34157509     0.11400
H2084       H  0.00108892  0.31599872  0.37655051     0.13300
H2085       H  0.02491210  0.31162499  0.39045705     0.09900
H2086       H  0.05348242  0.31160817  0.39161864     0.11900
H2087       H  0.05583718  0.30904846  0.34098119     0.08600
H2088       H  0.02705930  0.30936590  0.33967029     0.11300
C2089       C  0.33684837  0.07766244  0.35308080    -0.03300
C2090       C  0.33723315  0.09346368  0.35802169    -0.05900
C2091       C  0.32906458  0.10506802  0.34975687    -0.21000
C2092       C  0.32049300  0.10128176  0.33619588     0.24700
C2093       C  0.31985543  0.08545018  0.33130404    -0.18500
C2094       C  0.32791638  0.07374036  0.33972250    -0.08500
C2095       C  0.31203189  0.11414829  0.32788375    -0.18800
C2096       C  0.30864990  0.11392865  0.31239504    -0.23600
C2097       C  0.30063461  0.12721244  0.30422777     0.26800
C2098       C  0.30302724  0.12934846  0.28801102    -0.20400
C2099       C  0.29541665  0.14152455  0.27990247    -0.10000
C2100       C  0.28503316  0.15169633  0.28781866    -0.10600
C2101       C  0.28263639  0.14954035  0.30405720    -0.03500
C2102       C  0.29031267  0.13745302  0.31216500    -0.18600
H2103       H  0.34383771  0.09691848  0.36835385     0.10500
H2104       H  0.32960773  0.11712208  0.35388477     0.10600
H2105       H  0.31298787  0.08204068  0.32114538     0.10200
H2106       H  0.32730639  0.06167218  0.33567213     0.11300
H2107       H  0.30943771  0.12465625  0.33467142     0.11400
H2108       H  0.31261304  0.10410161  0.30525163     0.13300
H2109       H  0.31081941  0.12156254  0.28158982     0.09900
H2110       H  0.29742190  0.14276190  0.26737419     0.11900
H2111       H  0.27463561  0.15708153  0.31050709     0.08600
H2112       H  0.28777260  0.13594188  0.32454946     0.11300
C2113       C  0.34775609  0.85693529  0.33776653    -0.03300
C2114       C  0.35643206  0.84342747  0.33373871    -0.05900
C2115       C  0.34936548  0.83106124  0.32552931    -0.21000
C2116       C  0.33338957  0.83174242  0.32148495     0.24700
C2117       C  0.32478909  0.84544710  0.32509924    -0.18500
C2118       C  0.33194682  0.85796322  0.33309064    -0.08500
C2119       C  0.32616800  0.81803287  0.31338360    -0.18800
C2120       C  0.31090006  0.81410846  0.31503011    -0.23600
C2121       C  0.30370936  0.80003458  0.30750508     0.26800
C2122       C  0.29016133  0.79342381  0.31425651    -0.20400
C2123       C  0.28280857  0.78042584  0.30733582    -0.10000
C2124       C  0.28872439  0.77387339  0.29333737    -0.10600
C2125       C  0.30227247  0.78052513  0.28654360    -0.03500
C2126       C  0.30968785  0.79344940  0.29353155    -0.18600
H2127       H  0.36869253  0.84237088  0.33704120     0.10500
H2128       H  0.35630392  0.82074471  0.32268796     0.10600
H2129       H  0.31256712  0.84656100  0.32172480     0.10200
H2130       H  0.32499439  0.86824174  0.33600905     0.11300
H2131       H  0.33396999  0.81034122  0.30681349     0.11400
H2132       H  0.30352089  0.82095959  0.32290334     0.13300
H2133       H  0.28522088  0.79836050  0.32492522     0.09900
H2134       H  0.27226772  0.77575225  0.31276071     0.11900
H2135       H  0.30702701  0.77590038  0.27565785     0.08600
H2136       H  0.31981659  0.79848472  0.28769745     0.11300
C2137       C  0.35132472  0.91240512  0.35621473    -0.03300
C2138       C  0.34306145  0.91878577  0.34335474    -0.05900
C2139       C  0.33972035  0.93499873  0.34272613    -0.21000
C2140       C  0.34430234  0.94505822  0.35505189     0.24700
C2141       C  0.35236947  0.93854120  0.36795779    -0.18500
C2142       C  0.35575851  0.92250226  0.36853988    -0.08500
C2143       C  0.34190859  0.96243535  0.35375125    -0.18800
C2144       C  0.34091338  0.97174864  0.36658752    -0.23600
C2145       C  0.34241893  0.98922186  0.36654107     0.26800
C2146       C  0.34750602  0.99643998  0.38049263    -0.20400
C2147       C  0.35027194  0.01260841  0.38109809    -0.10000
C2148       C  0.34767316  0.02213118  0.36784651    -0.10600
C2149       C  0.34196716  0.01510095  0.35398281    -0.03500
C2150       C  0.33948774  0.99874198  0.35326881    -0.18600
H2151       H  0.33958447  0.91135853  0.33360599     0.10500
H2152       H  0.33369880  0.93972356  0.33253238     0.10600
H2153       H  0.35670463  0.94585992  0.37742008     0.10200
H2154       H  0.36217679  0.91807574  0.37862356     0.11300
H2155       H  0.34198042  0.96759333  0.34206946     0.11400
H2156       H  0.34033978  0.96621712  0.37809501     0.13300
H2157       H  0.34978260  0.98945483  0.39092258     0.09900
H2158       H  0.35447789  0.01767383  0.39201064     0.11900
H2159       H  0.33981338  0.02218437  0.34360288     0.08600
H2160       H  0.33528588  0.99365893  0.34238808     0.11300
C2161       C  0.29483047  0.67522367  0.19251312    -0.03300
C2162       C  0.30932454  0.68054237  0.18656696    -0.05900
C2163       C  0.31637270  0.67300641  0.17373921    -0.21000
C2164       C  0.30924570  0.65985280  0.16676505     0.24700
C2165       C  0.29486282  0.65437444  0.17285314    -0.18500
C2166       C  0.28774696  0.66198062  0.18557941    -0.08500
C2167       C  0.31676807  0.65248316  0.15281733    -0.18800
C2168       C  0.31505835  0.63713884  0.14928790    -0.23600
C2169       C  0.32302473  0.62953692  0.13575279     0.26800
C2170       C  0.32726203  0.61364500  0.13699967    -0.20400
C2171       C  0.33523809  0.60615583  0.12475040    -0.10000
C2172       C  0.33888183  0.61432954  0.11082757    -0.10600
C2173       C  0.33401295  0.63006248  0.10926398    -0.03500
C2174       C  0.32622912  0.63764598  0.12165989    -0.18600
H2175       H  0.31500882  0.69081240  0.19152307     0.10500
H2176       H  0.32740082  0.67750617  0.16919967     0.10600
H2177       H  0.28880798  0.64453109  0.16751853     0.10200
H2178       H  0.27651584  0.65766606  0.18977860     0.11300
H2179       H  0.32463032  0.65971060  0.14578884     0.11400
H2180       H  0.30853041  0.62955526  0.15724075     0.13300
H2181       H  0.32473899  0.60710419  0.14765707     0.09900
H2182       H  0.33869842  0.59397503  0.12625366     0.11900
H2183       H  0.33661949  0.63664159  0.09865876     0.08600
H2184       H  0.32269242  0.64979621  0.12017109     0.11300
C2185       C  0.34066172  0.61842129  0.89029561    -0.03300
C2186       C  0.32863584  0.62900368  0.89447803    -0.05900
C2187       C  0.31972380  0.63657593  0.88287995    -0.21000
C2188       C  0.32275127  0.63393751  0.86686079     0.24700
C2189       C  0.33467553  0.62327044  0.86263239    -0.18500
C2190       C  0.34351602  0.61560816  0.87421655    -0.08500
C2191       C  0.31301672  0.64218583  0.85490020    -0.18800
C2192       C  0.31844964  0.64606741  0.84052052    -0.23600
C2193       C  0.30897767  0.65511620  0.82896310     0.26800
C2194       C  0.31664956  0.66552682  0.81870115    -0.20400
C2195       C  0.30808654  0.67443489  0.80783006    -0.10000
C2196       C  0.29165746  0.67287969  0.80677528    -0.10600
C2197       C  0.28400934  0.66215441  0.81682798    -0.03500
C2198       C  0.29256894  0.65338739  0.82783219    -0.18600
H2199       H  0.32605703  0.63142952  0.90672073     0.10500
H2200       H  0.31052800  0.64466183  0.88643505     0.10600
H2201       H  0.33703576  0.62060915  0.85040225     0.10200
H2202       H  0.35258791  0.60745152  0.87053217     0.11300
H2203       H  0.30138365  0.64611768  0.85845062     0.11400
H2204       H  0.33062176  0.64360928  0.83751485     0.13300
H2205       H  0.32929539  0.66697971  0.81929432     0.09900
H2206       H  0.31434969  0.68257373  0.80027889     0.11900
H2207       H  0.27137266  0.66063335  0.81631315     0.08600
H2208       H  0.28635300  0.64515468  0.83531141     0.11300
C2209       C  0.35455011  0.60964953  0.94635147    -0.03300
C2210       C  0.34312690  0.62036749  0.95177282    -0.05900
C2211       C  0.34144430  0.62336917  0.96794734    -0.21000
C2212       C  0.35128796  0.61591285  0.97894172     0.24700
C2213       C  0.36247033  0.60500569  0.97349833    -0.18500
C2214       C  0.36410162  0.60196594  0.95747045    -0.08500
C2215       C  0.34927223  0.61880264  0.99610474    -0.18800
C2216       C  0.36158044  0.61801114  0.00608675    -0.23600
C2217       C  0.36053569  0.61728126  0.02357346     0.26800
C2218       C  0.37423033  0.61308889  0.03178775    -0.20400
C2219       C  0.37377719  0.61007362  0.04789674    -0.10000
C2220       C  0.35964232  0.61140834  0.05632598    -0.10600
C2221       C  0.34608101  0.61659212  0.04842668    -0.03500
C2222       C  0.34647274  0.61942092  0.03213667    -0.18600
H2223       H  0.33548596  0.62640145  0.94355100     0.10500
H2224       H  0.33254937  0.63161392  0.97187307     0.10600
H2225       H  0.36980333  0.59850151  0.98163592     0.10200
H2226       H  0.37288158  0.59347293  0.95383845     0.11300
H2227       H  0.33747956  0.62100404  0.00041757     0.11400
H2228       H  0.37326639  0.61664292  0.00108170     0.13300
H2229       H  0.38526017  0.61146534  0.02559889     0.09900
H2230       H  0.38446972  0.60628103  0.05370831     0.11900
H2231       H  0.33503535  0.61772272  0.05468102     0.08600
H2232       H  0.33568952  0.62286973  0.02636214     0.11300
C2233       C  0.71703180  0.25372767  0.18583088    -0.03300
C2234       C  0.70526179  0.24538584  0.17772534    -0.05900
C2235       C  0.69632089  0.25272694  0.16603690    -0.21000
C2236       C  0.69876570  0.26861425  0.16227630     0.24700
C2237       C  0.71056617  0.27699829  0.17031332    -0.18500
C2238       C  0.71958613  0.26962829  0.18197567    -0.08500
C2239       C  0.68924054  0.27581253  0.14948987    -0.18800
C2240       C  0.68604799  0.29132666  0.14865145    -0.23600
C2241       C  0.67638836  0.29842732  0.13589932     0.26800
C2242       C  0.66824562  0.31248611  0.13887940    -0.20400
C2243       C  0.65903575  0.31950656  0.12717167    -0.10000
C2244       C  0.65793699  0.31271562  0.11211189    -0.10600
C2245       C  0.66640882  0.29883066  0.10902483    -0.03500
C2246       C  0.67552021  0.29175810  0.12076837    -0.18600
H2247       H  0.70302627  0.23310086  0.18029631     0.10500
H2248       H  0.68741209  0.24596523  0.15992907     0.10600
H2249       H  0.71312671  0.28912508  0.16738569     0.10200
H2250       H  0.72869354  0.27634026  0.18782641     0.11300
H2251       H  0.68402519  0.26787798  0.14094735     0.11400
H2252       H  0.68993112  0.29904216  0.15806140     0.13300
H2253       H  0.66886741  0.31796528  0.15037423     0.09900
H2254       H  0.65278756  0.33026569  0.12994082     0.11900
H2255       H  0.66595297  0.29333967  0.09753513     0.08600
H2256       H  0.68204484  0.28121751  0.11785667     0.11300
C2257       C  0.64516345  0.30041909  0.89265000    -0.03300
C2258       C  0.64042815  0.30124789  0.87681611    -0.05900
C2259       C  0.64853458  0.29295221  0.86517646    -0.21000
C2260       C  0.66175053  0.28382121  0.86895435     0.24700
C2261       C  0.66659257  0.28297313  0.88478968    -0.18500
C2262       C  0.65833117  0.29115680  0.89652219    -0.08500
C2263       C  0.66970334  0.27502715  0.85605716    -0.18800
C2264       C  0.68491360  0.27057555  0.85638646    -0.23600
C2265       C  0.69275020  0.26270947  0.84281793     0.26800
C2266       C  0.70895914  0.26485099  0.84054928    -0.20400
C2267       C  0.71668016  0.25781469  0.82780528    -0.10000
C2268       C  0.70839085  0.24825033  0.81713568    -0.10600
C2269       C  0.69218654  0.24590921  0.81955748    -0.03500
C2270       C  0.68445599  0.25302814  0.83224679    -0.18600
H2271       H  0.63027574  0.30814871  0.87339325     0.10500
H2272       H  0.64447829  0.29373175  0.85311257     0.10600
H2273       H  0.67651050  0.27576596  0.88821692     0.10200
H2274       H  0.66225767  0.29023873  0.90861165     0.11300
H2275       H  0.66294642  0.27310493  0.84538782     0.11400
H2276       H  0.69218465  0.27378365  0.86638109     0.13300
H2277       H  0.71565160  0.27213403  0.84858449     0.09900
H2278       H  0.72919232  0.25975637  0.82641337     0.11900
H2279       H  0.68546686  0.23845174  0.81171508     0.08600
H2280       H  0.67205379  0.25068633  0.83388326     0.11300
C2281       C  0.62888194  0.30782662  0.94823279    -0.03300
C2282       C  0.61544203  0.31001073  0.95758168    -0.05900
C2283       C  0.61588295  0.30709740  0.97370238    -0.21000
C2284       C  0.62982832  0.30222249  0.98103725     0.24700
C2285       C  0.64324607  0.29948992  0.97166802    -0.18500
C2286       C  0.64271320  0.30215258  0.95533594    -0.08500
C2287       C  0.62966719  0.30105983  0.99849936    -0.18800
C2288       C  0.64240527  0.30247927  0.00781900    -0.23600
C2289       C  0.64079690  0.30588266  0.02493509     0.26800
C2290       C  0.65234369  0.30081946  0.03561816    -0.20400
C2291       C  0.65149192  0.30511882  0.05155364    -0.10000
C2292       C  0.63924446  0.31486757  0.05699448    -0.10600
C2293       C  0.62765032  0.31976522  0.04627930    -0.03500
C2294       C  0.62842339  0.31537517  0.03049570    -0.18600
H2295       H  0.60454691  0.31418029  0.95244730     0.10500
H2296       H  0.60535620  0.30922789  0.98057878     0.10600
H2297       H  0.65413211  0.29544409  0.97686480     0.10200
H2298       H  0.65322649  0.30030909  0.94837335     0.11300
H2299       H  0.61814788  0.30074821  0.00403885     0.11400
H2300       H  0.65414838  0.30233913  0.00282447     0.13300
H2301       H  0.66209163  0.29365768  0.03159639     0.09900
H2302       H  0.66063849  0.30117227  0.05949710     0.11900
H2303       H  0.61805515  0.32728286  0.05000353     0.08600
H2304       H  0.61960153  0.31999061  0.02255497     0.11300
C2305       C  0.28769326  0.15134467  0.70943546    -0.03300
C2306       C  0.27890955  0.14388050  0.69755996    -0.05900
C2307       C  0.28554595  0.13185358  0.68851284    -0.21000
C2308       C  0.30113908  0.12707626  0.69098663     0.24700
C2309       C  0.31001915  0.13460655  0.70277110    -0.18500
C2310       C  0.30336395  0.14662499  0.71186925    -0.08500
C2311       C  0.30749197  0.11383539  0.68147065    -0.18800
C2312       C  0.32290360  0.11198826  0.67841623    -0.23600
C2313       C  0.32913736  0.09924419  0.66822797     0.26800
C2314       C  0.34280746  0.10218946  0.65954361    -0.20400
C2315       C  0.34907990  0.09066462  0.64971247    -0.10000
C2316       C  0.34200716  0.07572330  0.64851721    -0.10600
C2317       C  0.32849098  0.07258308  0.65750133    -0.03500
C2318       C  0.32205159  0.08427878  0.66723477    -0.18600
H2319       H  0.26680183  0.14718095  0.69536316     0.10500
H2320       H  0.27844370  0.12622587  0.67955121     0.10600
H2321       H  0.32194784  0.13097903  0.70531918     0.10200
H2322       H  0.31041558  0.15201243  0.72100827     0.11300
H2323       H  0.29908518  0.10589134  0.67604318     0.11400
H2324       H  0.33120273  0.12079690  0.68249246     0.13300
H2325       H  0.34855660  0.11355232  0.66020098     0.09900
H2326       H  0.35959891  0.09349697  0.64310071     0.11900
H2327       H  0.32282679  0.06118559  0.65688593     0.08600
H2328       H  0.31169771  0.08151983  0.67411579     0.11300
C2329       C  0.34355787  0.85497018  0.66355449    -0.03300
C2330       C  0.35174048  0.84086913  0.66647775    -0.05900
C2331       C  0.34442756  0.82834543  0.67424487    -0.21000
C2332       C  0.32866128  0.82944760  0.67895737     0.24700
C2333       C  0.32051602  0.84365165  0.67636761    -0.18500
C2334       C  0.32793878  0.85633004  0.66882719    -0.08500
C2335       C  0.32123220  0.81570057  0.68684923    -0.18800
C2336       C  0.30590038  0.81202780  0.68517082    -0.23600
C2337       C  0.29838552  0.79810826  0.69276780     0.26800
C2338       C  0.28457679  0.79186277  0.68619280    -0.20400
C2339       C  0.27669689  0.77932718  0.69344974    -0.10000
C2340       C  0.28234599  0.77286769  0.70760924    -0.10600
C2341       C  0.29627727  0.77901044  0.71409693    -0.03500
C2342       C  0.30420323  0.79146708  0.70678652    -0.18600
H2343       H  0.36382357  0.83946667  0.66268085     0.10500
H2344       H  0.35101272  0.81761146  0.67626780     0.10600
H2345       H  0.30846579  0.84501971  0.68025303     0.10200
H2346       H  0.32133071  0.86703608  0.66677480     0.11300
H2347       H  0.32891736  0.80781804  0.69333058     0.11400
H2348       H  0.29866392  0.81911888  0.67736942     0.13300
H2349       H  0.27978360  0.79679852  0.67545646     0.09900
H2350       H  0.26595012  0.77497995  0.68817554     0.11900
H2351       H  0.30091551  0.77440679  0.72504206     0.08600
H2352       H  0.31456604  0.79617412  0.71246577     0.11300
C2353       C  0.35115254  0.02023995  0.63145610    -0.03300
C2354       C  0.35958681  0.01002529  0.62153218    -0.05900
C2355       C  0.35820561  0.99377812  0.62301130    -0.21000
C2356       C  0.34833691  0.98707249  0.63440627     0.24700
C2357       C  0.33971625  0.99718077  0.64437220    -0.18500
C2358       C  0.34113768  0.01363561  0.64289824    -0.08500
C2359       C  0.34771912  0.96954217  0.63504820    -0.18800
C2360       C  0.33944295  0.96069902  0.64532625    -0.23600
C2361       C  0.34044494  0.94315976  0.64498240     0.26800
C2362       C  0.33960522  0.93450070  0.65906846    -0.20400
C2363       C  0.34250595  0.91821191  0.65911378    -0.10000
C2364       C  0.34633208  0.91039406  0.64505271    -0.10600
C2365       C  0.34610909  0.91887228  0.63087429    -0.03500
C2366       C  0.34299009  0.93499360  0.63079445    -0.18600
H2367       H  0.36742298  0.01453268  0.61254955     0.10500
H2368       H  0.36498908  0.98638335  0.61513658     0.10600
H2369       H  0.33191856  0.99253847  0.65328260     0.10200
H2370       H  0.33447418  0.02115348  0.65073895     0.11300
H2371       H  0.35514108  0.96347765  0.62659323     0.11400
H2372       H  0.33274821  0.96619910  0.65468986     0.13300
H2373       H  0.33743107  0.94045697  0.67012648     0.09900
H2374       H  0.34257597  0.91191291  0.67019902     0.11900
H2375       H  0.34867777  0.91305442  0.61982165     0.08600
H2376       H  0.34293330  0.94108349  0.61960314     0.11300
C2377       C  0.18931228  0.25138529  0.70987714    -0.03300
C2378       C  0.18343601  0.24738038  0.69493793    -0.05900
C2379       C  0.17108948  0.25598237  0.68825045    -0.21000
C2380       C  0.16455489  0.26888571  0.69622221     0.24700
C2381       C  0.17057192  0.27305148  0.71104622    -0.18500
C2382       C  0.18280612  0.26439877  0.71778675    -0.08500
C2383       C  0.15105273  0.27736784  0.68914279    -0.18800
C2384       C  0.14845245  0.29280151  0.69152930    -0.23600
C2385       C  0.13532462  0.30132129  0.68389827     0.26800
C2386       C  0.13783010  0.31671816  0.67857599    -0.20400
C2387       C  0.12598972  0.32476066  0.67052604    -0.10000
C2388       C  0.11125725  0.31768815  0.66796045    -0.10600
C2389       C  0.10844637  0.30257724  0.67406796    -0.03500
C2390       C  0.12043516  0.29439678  0.68187300    -0.18600
H2391       H  0.18811936  0.23738312  0.68856707     0.10500
H2392       H  0.16658865  0.25252430  0.67683724     0.10600
H2393       H  0.16553837  0.28268857  0.71768480     0.10200
H2394       H  0.18695495  0.26774556  0.72936163     0.11300
H2395       H  0.14353348  0.27092180  0.68106058     0.11400
H2396       H  0.15689609  0.29968489  0.69820315     0.13300
H2397       H  0.14915520  0.32233550  0.68018462     0.09900
H2398       H  0.12845763  0.33645482  0.66608016     0.11900
H2399       H  0.09720359  0.29685812  0.67230241     0.08600
H2400       H  0.11809067  0.28265974  0.68625709     0.11300
C2401       C  0.89047553  0.31163064  0.66324685    -0.03300
C2402       C  0.87705037  0.30796624  0.65433599    -0.05900
C2403       C  0.86491574  0.29895709  0.66083505    -0.21000
C2404       C  0.86571987  0.29383447  0.67650441     0.24700
C2405       C  0.87923108  0.29731471  0.68540572    -0.18500
C2406       C  0.89155389  0.30602664  0.67877984    -0.08500
C2407       C  0.85237549  0.28473347  0.68313593    -0.18800
C2408       C  0.84772598  0.28618235  0.69821377    -0.23600
C2409       C  0.83395979  0.27769890  0.70487420     0.26800
C2410       C  0.82600653  0.28425958  0.71777498    -0.20400
C2411       C  0.81352822  0.27624778  0.72491053    -0.10000
C2412       C  0.80885049  0.26135532  0.71941426    -0.10600
C2413       C  0.81665158  0.25490145  0.70630943    -0.03500
C2414       C  0.82908260  0.26295902  0.69912979    -0.18600
H2415       H  0.87598242  0.31197631  0.64227986     0.10500
H2416       H  0.85470489  0.29626098  0.65370499     0.10600
H2417       H  0.88035324  0.29318313  0.69740940     0.10200
H2418       H  0.90179180  0.30863590  0.68589643     0.11300
H2419       H  0.84549159  0.27763208  0.67505620     0.11400
H2420       H  0.85371170  0.29456444  0.70578363     0.13300
H2421       H  0.82955391  0.29558125  0.72243905     0.09900
H2422       H  0.80781159  0.28156460  0.73498583     0.11900
H2423       H  0.81344030  0.24340886  0.70183540     0.08600
H2424       H  0.83516735  0.25735489  0.68944900     0.11300
C2425       C  0.94677695  0.32614722  0.65885183    -0.03300
C2426       C  0.95220847  0.31222437  0.66603059    -0.05900
C2427       C  0.96843124  0.30957917  0.66794538    -0.21000
C2428       C  0.97940155  0.32073280  0.66258176     0.24700
C2429       C  0.97386347  0.33498565  0.65628452    -0.18500
C2430       C  0.95781948  0.33761683  0.65438674    -0.08500
C2431       C  0.99660758  0.31751028  0.66317578    -0.18800
C2432       C  0.00595004  0.32214237  0.65120462    -0.23600
C2433       C  0.02344548  0.32152042  0.65072128     0.26800
C2434       C  0.03073892  0.32644139  0.63674444    -0.20400
C2435       C  0.04700615  0.32811903  0.63584879    -0.10000
C2436       C  0.05655676  0.32482907  0.64890727    -0.10600
C2437       C  0.04942502  0.31911969  0.66275303    -0.03500
C2438       C  0.03297590  0.31755713  0.66370668    -0.18600
H2439       H  0.94399144  0.30318848  0.66966068     0.10500
H2440       H  0.97242356  0.29859753  0.67304881     0.10600
H2441       H  0.98198079  0.34409988  0.65261630     0.10200
H2442       H  0.95409446  0.34861961  0.64912659     0.11300
H2443       H  0.00136201  0.31121416  0.67320777     0.11400
H2444       H  0.00029868  0.32723481  0.64091162     0.13300
H2445       H  0.02376234  0.32950640  0.62651925     0.09900
H2446       H  0.05207654  0.33232061  0.62493089     0.11900
H2447       H  0.05648395  0.31645163  0.67302061     0.08600
H2448       H  0.02784223  0.31377438  0.67471825     0.11300
C2449       C  0.66692226  0.07346419  0.34361638    -0.03300
C2450       C  0.67146249  0.08684005  0.35222222    -0.05900
C2451       C  0.68050399  0.09863258  0.34518260    -0.21000
C2452       C  0.68488057  0.09747767  0.32931395     0.24700
C2453       C  0.68084447  0.08381652  0.32084946    -0.18500
C2454       C  0.67200436  0.07188724  0.32797524    -0.08500
C2455       C  0.69355020  0.11074107  0.32195432    -0.18800
C2456       C  0.69203263  0.11443538  0.30661804    -0.23600
C2457       C  0.69989274  0.12811136  0.29906867     0.26800
C2458       C  0.69356613  0.13407608  0.28503302    -0.20400
C2459       C  0.70083079  0.14654743  0.27717110    -0.10000
C2460       C  0.71475315  0.15323006  0.28306961    -0.10600
C2461       C  0.72108065  0.14732552  0.29717553    -0.03500
C2462       C  0.71373846  0.13489648  0.30510813    -0.18600
H2463       H  0.66786327  0.08826856  0.36437006     0.10500
H2464       H  0.68366714  0.10892185  0.35201154     0.10600
H2465       H  0.68447286  0.08231618  0.30873268     0.10200
H2466       H  0.66871571  0.06167771  0.32109501     0.11300
H2467       H  0.70032216  0.11833220  0.32966329     0.11400
H2468       H  0.68397546  0.10766168  0.29937977     0.13300
H2469       H  0.68298196  0.12900406  0.28007017     0.09900
H2470       H  0.69572223  0.15069630  0.26625401     0.11900
H2471       H  0.73186002  0.15213645  0.30196200     0.08600
H2472       H  0.71921952  0.13038329  0.31567059     0.11300
C2473       C  0.66073875  0.85527967  0.34643290    -0.03300
C2474       C  0.66497701  0.84183578  0.35509054    -0.05900
C2475       C  0.67512952  0.83063987  0.34867063    -0.21000
C2476       C  0.68100212  0.83246794  0.33336569     0.24700
C2477       C  0.67704983  0.84609118  0.32478573    -0.18500
C2478       C  0.66702613  0.85740598  0.33129264    -0.08500
C2479       C  0.69111654  0.81988098  0.32678193    -0.18800
C2480       C  0.69189811  0.81677344  0.31128501    -0.23600
C2481       C  0.70075849  0.80328530  0.30465390     0.26800
C2482       C  0.69634736  0.79755436  0.28983405    -0.20400
C2483       C  0.70427997  0.78487508  0.28308630    -0.10000
C2484       C  0.71690290  0.77768591  0.29099606    -0.10600
C2485       C  0.72141576  0.78346408  0.30580959    -0.03500
C2486       C  0.71347920  0.79619217  0.31255652    -0.18600
H2487       H  0.66044432  0.83996318  0.36685931     0.10500
H2488       H  0.67813367  0.82033396  0.35556326     0.10600
H2489       H  0.68173851  0.84811813  0.31312036     0.10200
H2490       H  0.66398070  0.86767390  0.32437221     0.11300
H2491       H  0.69694110  0.81213497  0.33510019     0.11400
H2492       H  0.68481284  0.82363463  0.30316007     0.13300
H2493       H  0.68665017  0.80285538  0.28347511     0.09900
H2494       H  0.70053546  0.78075441  0.27162294     0.11900
H2495       H  0.73123155  0.77831000  0.31209497     0.08600
H2496       H  0.71756251  0.80057420  0.32377967     0.11300
C2497       C  0.63811417  0.90898653  0.34878468    -0.03300
C2498       C  0.62433202  0.91776933  0.35121867    -0.05900
C2499       C  0.62391180  0.93382401  0.34790156    -0.21000
C2500       C  0.63729164  0.94166269  0.34225637     0.24700
C2501       C  0.65100102  0.93280999  0.33921750    -0.18500
C2502       C  0.65135889  0.91656808  0.34238099    -0.08500
C2503       C  0.63624540  0.95907254  0.34038735    -0.18800
C2504       C  0.64865013  0.96896446  0.33993513    -0.23600
C2505       C  0.64690054  0.98638617  0.34149949     0.26800
C2506       C  0.65895503  0.99637574  0.33615526    -0.20400
C2507       C  0.65828555  0.01265870  0.33892498    -0.10000
C2508       C  0.64562310  0.01925088  0.34732478    -0.10600
C2509       C  0.63341555  0.00927744  0.35232071    -0.03500
C2510       C  0.63405796  0.99310679  0.34952906    -0.18600
H2511       H  0.61384921  0.91226913  0.35594078     0.10500
H2512       H  0.61315553  0.94025855  0.35025000     0.10600
H2513       H  0.66146184  0.93831787  0.33452844     0.10200
H2514       H  0.66212387  0.91007061  0.34030705     0.11300
H2515       H  0.62448186  0.96402733  0.34056089     0.11400
H2516       H  0.66050434  0.96430126  0.33923817     0.13300
H2517       H  0.66905279  0.99152737  0.33007043     0.09900
H2518       H  0.66790857  0.01998601  0.33492229     0.11900
H2519       H  0.62346534  0.01389344  0.35881028     0.08600
H2520       H  0.62475462  0.98590559  0.35436485     0.11300
C2521       C  0.11129904  0.61098771  0.33517805    -0.03300
C2522       C  0.10720322  0.61877342  0.32114816    -0.05900
C2523       C  0.11832056  0.62782997  0.31303566    -0.21000
C2524       C  0.13366088  0.62953525  0.31889513     0.24700
C2525       C  0.13773441  0.62184676  0.33297872    -0.18500
C2526       C  0.12668754  0.61267067  0.34099713    -0.08500
C2527       C  0.14538764  0.63856769  0.30959025    -0.18800
C2528       C  0.15800134  0.64564754  0.31605653    -0.23600
C2529       C  0.17002688  0.65400904  0.30655369     0.26800
C2530       C  0.17804388  0.66684537  0.31314690    -0.20400
C2531       C  0.18952794  0.67487080  0.30449727    -0.10000
C2532       C  0.19349265  0.66993457  0.28921602    -0.10600
C2533       C  0.18572735  0.65683544  0.28276715    -0.03500
C2534       C  0.17406724  0.64899211  0.29130929    -0.18600
H2535       H  0.09549439  0.61764012  0.31626746     0.10500
H2536       H  0.11493991  0.63349956  0.30212330     0.10600
H2537       H  0.14956318  0.62249845  0.33762267     0.10200
H2538       H  0.13026333  0.60680369  0.35173485     0.11300
H2539       H  0.14330085  0.63976905  0.29703276     0.11400
H2540       H  0.15930047  0.64589497  0.32876608     0.13300
H2541       H  0.17526113  0.67079592  0.32494635     0.09900
H2542       H  0.19536813  0.68487825  0.30979915     0.11900
H2543       H  0.18851876  0.65276031  0.27101456     0.08600
H2544       H  0.16842872  0.63885410  0.28605795     0.11300
C2545       C  0.80565237  0.66823380  0.29358581    -0.03300
C2546       C  0.80562357  0.65168297  0.29389367    -0.05900
C2547       C  0.81721234  0.64342888  0.30220428    -0.21000
C2548       C  0.82926103  0.65150311  0.31009181     0.24700
C2549       C  0.82923398  0.66805556  0.30991026    -0.18500
C2550       C  0.81753351  0.67631459  0.30179428    -0.08500
C2551       C  0.84130294  0.64238635  0.31891793    -0.18800
C2552       C  0.85616801  0.64748976  0.32101343    -0.23600
C2553       C  0.86817868  0.63850811  0.33003234     0.26800
C2554       C  0.88415197  0.64044941  0.32632536    -0.20400
C2555       C  0.89577490  0.63234300  0.33473350    -0.10000
C2556       C  0.89167633  0.62222933  0.34719217    -0.10600
C2557       C  0.87566719  0.62055504  0.35109604    -0.03500
C2558       C  0.86405947  0.62858690  0.34262719    -0.18600
H2559       H  0.79664829  0.64509951  0.28770186     0.10500
H2560       H  0.81689229  0.63068071  0.30229714     0.10600
H2561       H  0.83809031  0.67466715  0.31622480     0.10200
H2562       H  0.81793226  0.68905712  0.30177790     0.11300
H2563       H  0.83797673  0.63080238  0.32317894     0.11400
H2564       H  0.85992447  0.65831848  0.31534746     0.13300
H2565       H  0.88764211  0.64815593  0.31678049     0.09900
H2566       H  0.90796536  0.63398190  0.33142298     0.11900
H2567       H  0.87205096  0.61301757  0.36071968     0.08600
H2568       H  0.85190673  0.62720786  0.34615902     0.11300
C2569       C  0.05666598  0.59272792  0.34388481    -0.03300
C2570       C  0.04733540  0.57922805  0.34565796    -0.05900
C2571       C  0.03099163  0.58016658  0.34456906    -0.21000
C2572       C  0.02346848  0.59465342  0.34193655     0.24700
C2573       C  0.03284656  0.60812388  0.33944093    -0.18500
C2574       C  0.04932064  0.60711567  0.34029909    -0.08500
C2575       C  0.00594933  0.59496661  0.34295310    -0.18800
C2576       C  0.99688152  0.60801874  0.34318618    -0.23600
C2577       C  0.97978202  0.60731078  0.34703344     0.26800
C2578       C  0.96937503  0.61866394  0.34097587    -0.20400
C2579       C  0.95331276  0.61829731  0.34487886    -0.10000
C2580       C  0.94743446  0.60671044  0.35515902    -0.10600
C2581       C  0.95797013  0.59556837  0.36139891    -0.03500
C2582       C  0.97387767  0.59587744  0.35744112    -0.18600
H2583       H  0.05268040  0.56793929  0.34823994     0.10500
H2584       H  0.02416134  0.56955589  0.34639791     0.10600
H2585       H  0.02763167  0.61949689  0.33717272     0.10200
H2586       H  0.05626151  0.61770816  0.33886968     0.11300
H2587       H  0.00022650  0.58363463  0.34443665     0.11400
H2588       H  0.00193219  0.61950009  0.34089741     0.13300
H2589       H  0.97366892  0.62776252  0.33314232     0.09900
H2590       H  0.94555350  0.62713748  0.33997022     0.11900
H2591       H  0.95396494  0.58652683  0.36944417     0.08600
H2592       H  0.98157582  0.58732280  0.36289699     0.11300
C2593       C  0.65398021  0.62245954  0.11235694    -0.03300
C2594       C  0.65832609  0.61321328  0.12536568    -0.05900
C2595       C  0.66769016  0.61946204  0.13731420    -0.21000
C2596       C  0.67256704  0.63520425  0.13675166     0.24700
C2597       C  0.66869193  0.64436511  0.12348095    -0.18500
C2598       C  0.65957188  0.63797890  0.11130373    -0.08500
C2599       C  0.68156884  0.64162279  0.15026867    -0.18800
C2600       C  0.67999919  0.65657239  0.15528510    -0.23600
C2601       C  0.68792781  0.66278916  0.16960545     0.26800
C2602       C  0.68129902  0.67576300  0.17738840    -0.20400
C2603       C  0.68874778  0.68243945  0.19045475    -0.10000
C2604       C  0.70315197  0.67640366  0.19593776    -0.10600
C2605       C  0.70963942  0.66320283  0.18833201    -0.03500
C2606       C  0.70214488  0.65648399  0.17530251    -0.18600
H2607       H  0.65431345  0.60115459  0.12639191     0.10500
H2608       H  0.67068942  0.61212132  0.14730565     0.10600
H2609       H  0.67265136  0.65643648  0.12252703     0.10200
H2610       H  0.65641254  0.64532989  0.10137630     0.11300
H2611       H  0.68847976  0.63335743  0.15713499     0.11400
H2612       H  0.67180620  0.66431769  0.14925011     0.13300
H2613       H  0.67038064  0.68086759  0.17323638     0.09900
H2614       H  0.68345277  0.69265515  0.19593926     0.11900
H2615       H  0.72078904  0.65834138  0.19212995     0.08600
H2616       H  0.70783545  0.64673149  0.16942320     0.11300
C2617       C  0.70352681  0.66873611  0.80918060    -0.03300
C2618       C  0.71120794  0.65557758  0.81567143    -0.05900
C2619       C  0.70396056  0.64654516  0.82737189    -0.21000
C2620       C  0.68903108  0.65062094  0.83308598     0.24700
C2621       C  0.68115920  0.66357201  0.82641903    -0.18500
C2622       C  0.68830709  0.67248727  0.81452909    -0.08500
C2623       C  0.68177651  0.64082517  0.84561138    -0.18800
C2624       C  0.67241684  0.64683268  0.85690953    -0.23600
C2625       C  0.66504682  0.63701400  0.86938982     0.26800
C2626       C  0.66146131  0.64383948  0.88400640    -0.20400
C2627       C  0.65381660  0.63510949  0.89571494    -0.10000
C2628       C  0.64927638  0.61945369  0.89289959    -0.10600
C2629       C  0.65292559  0.61260655  0.87828281    -0.03500
C2630       C  0.66077195  0.62125352  0.86667940    -0.18600
H2631       H  0.72290347  0.65231426  0.81180476     0.10500
H2632       H  0.71017453  0.63651268  0.83220996     0.10600
H2633       H  0.66943901  0.66673432  0.83027912     0.10200
H2634       H  0.68203196  0.68250414  0.80975232     0.11300
H2635       H  0.68500121  0.62846118  0.84602926     0.11400
H2636       H  0.67055102  0.65947651  0.85740943     0.13300
H2637       H  0.66453276  0.65598969  0.88634587     0.09900
H2638       H  0.65108234  0.64075868  0.90680777     0.11900
H2639       H  0.64958709  0.60057151  0.87574227     0.08600
H2640       H  0.66300481  0.61571191  0.85543276     0.11300
C2641       C  0.63021903  0.61258071  0.94746516    -0.03300
C2642       C  0.61596017  0.61132240  0.95568449    -0.05900
C2643       C  0.61503489  0.61549642  0.97154000    -0.21000
C2644       C  0.62841037  0.62064499  0.97972716     0.24700
C2645       C  0.64267608  0.62230313  0.97141148    -0.18500
C2646       C  0.64351617  0.61841061  0.95536494    -0.08500
C2647       C  0.62681039  0.62351213  0.99695469    -0.18800
C2648       C  0.63880437  0.62281906  0.00732147    -0.23600
C2649       C  0.63636834  0.62232555  0.02470939     0.26800
C2650       C  0.64876327  0.62657865  0.03478224    -0.20400
C2651       C  0.64740664  0.62467206  0.05112908    -0.10000
C2652       C  0.63368896  0.61820215  0.05773532    -0.10600
C2653       C  0.62117303  0.61424408  0.04766643    -0.03500
C2654       C  0.62247821  0.61625521  0.03139690    -0.18600
H2655       H  0.60547922  0.60705085  0.94983350     0.10500
H2656       H  0.60387410  0.61422333  0.97757054     0.10600
H2657       H  0.65317224  0.62656959  0.97718263     0.10200
H2658       H  0.65464140  0.61952786  0.94924992     0.11300
H2659       H  0.61492743  0.62498835  0.00138499     0.11400
H2660       H  0.65079139  0.62169546  0.00309546     0.13300
H2661       H  0.65964963  0.63112231  0.02995753     0.09900
H2662       H  0.65730002  0.62776865  0.05852602     0.11900
H2663       H  0.61042837  0.60921471  0.05231852     0.08600
H2664       H  0.61281283  0.61233391  0.02412311     0.11300
C2665       C  0.18430237  0.67232192  0.71719633    -0.03300
C2666       C  0.17473339  0.68029338  0.70632153    -0.05900
C2667       C  0.16228022  0.67253244  0.69895422    -0.21000
C2668       C  0.15924223  0.65662430  0.70213271     0.24700
C2669       C  0.16879767  0.64860791  0.71301785    -0.18500
C2670       C  0.18122024  0.65637803  0.72043500    -0.08500
C2671       C  0.14596709  0.64885853  0.69393660    -0.18800
C2672       C  0.14580170  0.63337510  0.69068804    -0.23600
C2673       C  0.13356944  0.62596403  0.68074068     0.26800
C2674       C  0.13774080  0.61280528  0.67174346    -0.20400
C2675       C  0.12690962  0.60593346  0.66153879    -0.10000
C2676       C  0.11152513  0.61189790  0.66030702    -0.10600
C2677       C  0.10711968  0.62472558  0.66976334    -0.03500
C2678       C  0.11806470  0.63174650  0.67987442    -0.18600
H2679       H  0.17673246  0.69259308  0.70362926     0.10500
H2680       H  0.15504526  0.67895851  0.69064912     0.10600
H2681       H  0.16654392  0.63645408  0.71608452     0.10200
H2682       H  0.18827075  0.64993187  0.72887484     0.11300
H2683       H  0.13677824  0.65638117  0.68921532     0.11400
H2684       H  0.15578158  0.62613081  0.69403241     0.13300
H2685       H  0.14955392  0.60804468  0.67232524     0.09900
H2686       H  0.13062897  0.59591816  0.65458577     0.11900
H2687       H  0.09532042  0.62949550  0.66914575     0.08600
H2688       H  0.11434184  0.64161419  0.68701253     0.11300
C2689       C  0.89157236  0.62123936  0.66435348    -0.03300
C2690       C  0.89603433  0.62778472  0.67887209    -0.05900
C2691       C  0.88485335  0.63522789  0.68847409    -0.21000
C2692       C  0.86911861  0.63657057  0.68359152     0.24700
C2693       C  0.86465768  0.62989801  0.66914565    -0.18500
C2694       C  0.87573123  0.62233178  0.65967529    -0.08500
C2695       C  0.85744022  0.64448942  0.69392973    -0.18800
C2696       C  0.84486695  0.65226549  0.68816215    -0.23600
C2697       C  0.83279959  0.65994194  0.69820970     0.26800
C2698       C  0.82427941  0.67273693  0.69213759    -0.20400
C2699       C  0.81256186  0.68003256  0.70111154    -0.10000
C2700       C  0.80887086  0.67442673  0.71623120    -0.10600
C2701       C  0.81721257  0.66144043  0.72220858    -0.03500
C2702       C  0.82909780  0.65430482  0.71332994    -0.18600
H2703       H  0.90809330  0.62698115  0.68289329     0.10500
H2704       H  0.88852454  0.64009260  0.69966736     0.10600
H2705       H  0.85254731  0.63024019  0.66523696     0.10200
H2706       H  0.87182895  0.61734799  0.64861710     0.11300
H2707       H  0.85963714  0.64445219  0.70651820     0.11400
H2708       H  0.84363885  0.65364141  0.67551128     0.13300
H2709       H  0.82677302  0.67716684  0.68043992     0.09900
H2710       H  0.80625613  0.68993635  0.69613784     0.11900
H2711       H  0.81461509  0.65684002  0.73381384     0.08600
H2712       H  0.83510775  0.64418543  0.71820249     0.11300
C2713       C  0.94647373  0.60933685  0.64736292    -0.03300
C2714       C  0.95352823  0.61756849  0.65986875    -0.05900
C2715       C  0.96999494  0.61867951  0.66091909    -0.21000
C2716       C  0.97968019  0.61145871  0.64961043     0.24700
C2717       C  0.97256204  0.60373337  0.63684341    -0.18500
C2718       C  0.95625107  0.60261017  0.63580086    -0.08500
C2719       C  0.99713897  0.61224601  0.65108398    -0.18800
C2720       C  0.00643809  0.60059158  0.64561538    -0.23600
C2721       C  0.02395459  0.60068156  0.64529710     0.26800
C2722       C  0.03138772  0.58914495  0.63613508    -0.20400
C2723       C  0.04770011  0.58862386  0.63485456    -0.10000
C2724       C  0.05717962  0.59957380  0.64282480    -0.10600
C2725       C  0.04985656  0.61096386  0.65236115    -0.03500
C2726       C  0.03336430  0.61157346  0.65354940    -0.18600
H2727       H  0.94636196  0.62298455  0.66890746     0.10500
H2728       H  0.97518763  0.62492049  0.67073898     0.10600
H2729       H  0.97954530  0.59864479  0.62748640     0.10200
H2730       H  0.95133174  0.59642269  0.62581117     0.11300
H2731       H  0.00220603  0.62245399  0.65680574     0.11400
H2732       H  0.00085142  0.59025666  0.64059442     0.13300
H2733       H  0.02451479  0.58053800  0.62971676     0.09900
H2734       H  0.05286521  0.57955088  0.62754209     0.11900
H2735       H  0.05684181  0.61951521  0.65871168     0.08600
H2736       H  0.02813994  0.62050003  0.66095169     0.11300
C2737       C  0.70999458  0.16188254  0.70601604    -0.03300
C2738       C  0.69501718  0.15759913  0.71158233    -0.05900
C2739       C  0.68619687  0.14606630  0.70385812    -0.21000
C2740       C  0.69227873  0.13829198  0.69062959     0.24700
C2741       C  0.70705237  0.14290343  0.68472333    -0.18500
C2742       C  0.71578943  0.15463385  0.69231531    -0.08500
C2743       C  0.68288345  0.12550331  0.68328917    -0.18800
C2744       C  0.68950837  0.11305157  0.67603705    -0.23600
C2745       C  0.68034671  0.09982496  0.66915402     0.26800
C2746       C  0.68778233  0.08520267  0.66707134    -0.20400
C2747       C  0.67993178  0.07271715  0.65976724    -0.10000
C2748       C  0.66455288  0.07470990  0.65410570    -0.10600
C2749       C  0.65696191  0.08923268  0.65649008    -0.03500
C2750       C  0.66474741  0.10165811  0.66393514    -0.18600
H2751       H  0.69017858  0.16304593  0.72204389     0.10500
H2752       H  0.67476496  0.14288012  0.70851019     0.10600
H2753       H  0.71188081  0.13748779  0.67425445     0.10200
H2754       H  0.72727893  0.15769345  0.68773205     0.11300
H2755       H  0.67023514  0.12581950  0.68499418     0.11400
H2756       H  0.70224359  0.11207220  0.67576399     0.13300
H2757       H  0.69980863  0.08349720  0.67092492     0.09900
H2758       H  0.68613630  0.06172401  0.65799066     0.11900
H2759       H  0.64509735  0.09112868  0.65224690     0.08600
H2760       H  0.65869885  0.11280920  0.66500283     0.11300
C2761       C  0.65328414  0.85445411  0.66024038    -0.03300
C2762       C  0.64381600  0.84094753  0.66181833    -0.05900
C2763       C  0.64939771  0.82760241  0.66970092    -0.21000
C2764       C  0.66467995  0.82729389  0.67588678     0.24700
C2765       C  0.67407457  0.84088300  0.67460633    -0.18500
C2766       C  0.66839430  0.85435014  0.66694267    -0.08500
C2767       C  0.67036095  0.81282283  0.68396522    -0.18800
C2768       C  0.68549797  0.80817324  0.68342594    -0.23600
C2769       C  0.69165497  0.79391782  0.69155462     0.26800
C2770       C  0.70536519  0.78682575  0.68572955    -0.20400
C2771       C  0.71243418  0.77433539  0.69376661    -0.10000
C2772       C  0.70612133  0.76876019  0.70804415    -0.10600
C2773       C  0.69214639  0.77559120  0.71370653    -0.03500
C2774       C  0.68494592  0.78801190  0.70552363    -0.18600
H2775       H  0.63206638  0.84065805  0.65690651     0.10500
H2776       H  0.64186615  0.81736546  0.67069213     0.10600
H2777       H  0.68576221  0.84117885  0.67964609     0.10200
H2778       H  0.67596470  0.86455245  0.66597368     0.11300
H2779       H  0.66169834  0.80541744  0.68974339     0.11400
H2780       H  0.69373922  0.81483713  0.67626887     0.13300
H2781       H  0.71080480  0.79115808  0.67503657     0.09900
H2782       H  0.72320635  0.76943076  0.68904138     0.11900
H2783       H  0.68700392  0.77162795  0.72467710     0.08600
H2784       H  0.67454431  0.79338169  0.71053048     0.11300
C2785       C  0.65652014  0.91077452  0.64398850    -0.03300
C2786       C  0.66184644  0.91706790  0.65831485    -0.05900
C2787       C  0.66559843  0.93315331  0.65945144    -0.21000
C2788       C  0.66438650  0.94309469  0.64624082     0.24700
C2789       C  0.65952415  0.93654852  0.63184182    -0.18500
C2790       C  0.65575045  0.92064966  0.63074219    -0.08500
C2791       C  0.66659325  0.96043035  0.64797060    -0.18800
C2792       C  0.67011141  0.96981749  0.63564242    -0.23600
C2793       C  0.66820884  0.98719515  0.63571727     0.26800
C2794       C  0.66385784  0.99452302  0.62157541    -0.20400
C2795       C  0.66036527  0.01055965  0.62116048    -0.10000
C2796       C  0.66149586  0.01977337  0.63483008    -0.10600
C2797       C  0.66676803  0.01267817  0.64883542    -0.03500
C2798       C  0.66996941  0.99646781  0.64932619    -0.18600
H2799       H  0.66236396  0.90977400  0.66875862     0.10500
H2800       H  0.66908903  0.93792449  0.67074073     0.10600
H2801       H  0.65778462  0.94375347  0.62149548     0.10200
H2802       H  0.65164407  0.91619020  0.61952794     0.11300
H2803       H  0.66407930  0.96559772  0.65938013     0.11400
H2804       H  0.67288474  0.96451265  0.62436292     0.13300
H2805       H  0.66254945  0.98767974  0.61089572     0.09900
H2806       H  0.65655413  0.01571410  0.61013787     0.11900
H2807       H  0.66785884  0.01953114  0.65952296     0.08600
H2808       H  0.67368791  0.99123749  0.66032823     0.11300
C2809       C  0.96234880  0.91816831  0.38116495    -0.03300
C2810       C  0.94996832  0.91666065  0.37038560    -0.05900
C2811       C  0.93943945  0.90408798  0.37164079    -0.21000
C2812       C  0.94106737  0.89295937  0.38376430     0.24700
C2813       C  0.95392022  0.89418978  0.39413932    -0.18500
C2814       C  0.96435648  0.90677234  0.39292633    -0.08500
C2815       C  0.92895669  0.88051705  0.38553379    -0.18800
C2816       C  0.92571152  0.87382602  0.39953202    -0.23600
C2817       C  0.91263497  0.86261787  0.40225796     0.26800
C2818       C  0.90736390  0.86049556  0.41775639    -0.20400
C2819       C  0.89484880  0.85043016  0.42104042    -0.10000
C2820       C  0.88740472  0.84208905  0.40888419    -0.10600
C2821       C  0.89288895  0.84390080  0.39337215    -0.03500
C2822       C  0.90539867  0.85406080  0.39006791    -0.18600
H2823       H  0.94835810  0.92533321  0.36117579     0.10500
H2824       H  0.92975317  0.90329152  0.36340019     0.10600
H2825       H  0.95598326  0.88551800  0.40322942     0.10200
H2826       H  0.97394906  0.90773015  0.40126294     0.11300
H2827       H  0.92168894  0.87792210  0.37537460     0.11400
H2828       H  0.93212696  0.87762706  0.40989045     0.13300
H2829       H  0.91282684  0.86682136  0.42738101     0.09900
H2830       H  0.89103562  0.84918077  0.43314032     0.11900
H2831       H  0.88745784  0.83754850  0.38375643     0.08600
H2832       H  0.90939416  0.85500625  0.37802397     0.11300
C2833       C  0.04167702  0.92441317  0.38887602    -0.03300
C2834       C  0.03903240  0.91256227  0.40004000    -0.05900
C2835       C  0.05053650  0.90127334  0.40305412    -0.21000
C2836       C  0.06500904  0.90161847  0.39508908     0.24700
C2837       C  0.06769763  0.91361212  0.38391046    -0.18500
C2838       C  0.05608365  0.92489707  0.38083954    -0.08500
C2839       C  0.07682107  0.88939081  0.39926205    -0.18800
C2840       C  0.09115038  0.88785524  0.39267344    -0.23600
C2841       C  0.10234002  0.87544100  0.39776727     0.26800
C2842       C  0.11304384  0.86924606  0.38684726    -0.20400
C2843       C  0.12331956  0.85714189  0.39118195    -0.10000
C2844       C  0.12322567  0.85112398  0.40661976    -0.10600
C2845       C  0.11287417  0.85773824  0.41769072    -0.03500
C2846       C  0.10259029  0.86979169  0.41334026    -0.18600
H2847       H  0.02801517  0.91207682  0.40643625     0.10500
H2848       H  0.04812429  0.89225860  0.41175150     0.10600
H2849       H  0.07865123  0.91448573  0.37753965     0.10200
H2850       H  0.05830688  0.93401316  0.37220269     0.11300
H2851       H  0.07333914  0.88099614  0.40825359     0.11400
H2852       H  0.09467734  0.89528466  0.38293130     0.13300
H2853       H  0.11322985  0.87355920  0.37484605     0.09900
H2854       H  0.13125150  0.85243463  0.38238757     0.11900
H2855       H  0.11261533  0.85354396  0.42972650     0.08600
H2856       H  0.09495195  0.87472857  0.42225371     0.11300
C2857       C  0.95549197  0.99991735  0.39106282    -0.03300
C2858       C  0.95613709  0.00722854  0.40582800    -0.05900
C2859       C  0.94483118  0.01835793  0.41011663    -0.21000
C2860       C  0.93261693  0.02244049  0.39975225     0.24700
C2861       C  0.93193596  0.01495205  0.38493293    -0.18500
C2862       C  0.94326046  0.00372578  0.38068257    -0.08500
C2863       C  0.92151199  0.03513165  0.40465397    -0.18800
C2864       C  0.90759251  0.03812040  0.39762734    -0.23600
C2865       C  0.89696275  0.05138274  0.40210806     0.26800
C2866       C  0.88520990  0.05600349  0.39144439    -0.20400
C2867       C  0.87515542  0.06858916  0.39486748    -0.10000
C2868       C  0.87649809  0.07680778  0.40915882    -0.10600
C2869       C  0.88801993  0.07198420  0.42001321    -0.03500
C2870       C  0.89811117  0.05942442  0.41657147    -0.18600
H2871       H  0.96551714  0.00439437  0.41398054     0.10500
H2872       H  0.94572407  0.02392100  0.42155312     0.10600
H2873       H  0.92302335  0.01795466  0.37638526     0.10200
H2874       H  0.94268482  0.99824405  0.36919065     0.11300
H2875       H  0.92526169  0.04239713  0.41443220     0.11400
H2876       H  0.90384502  0.03085899  0.38784031     0.13300
H2877       H  0.88391051  0.04996069  0.38029446     0.09900
H2878       H  0.86632266  0.07186468  0.38628841     0.11900
H2879       H  0.88931993  0.07796432  0.43119081     0.08600
H2880       H  0.90659888  0.05604565  0.42540667     0.11300
C2881       C  0.03539821  0.00630400  0.39151755    -0.03300
C2882       C  0.03281174  0.01687673  0.40390628    -0.05900
C2883       C  0.04356577  0.02892284  0.40685772    -0.21000
C2884       C  0.05710934  0.03060389  0.39752028     0.24700
C2885       C  0.05973801  0.01979850  0.38520324    -0.18500
C2886       C  0.04891348  0.00782463  0.38220938    -0.08500
C2887       C  0.06831926  0.04342380  0.40146462    -0.18800
C2888       C  0.08036490  0.04791583  0.39217912    -0.23600
C2889       C  0.09173595  0.06043751  0.39655674     0.26800
C2890       C  0.10096321  0.06728375  0.38468258    -0.20400
C2891       C  0.11221456  0.07869820  0.38833917    -0.10000
C2892       C  0.11455122  0.08343483  0.40401293    -0.10600
C2893       C  0.10526248  0.07663069  0.41589013    -0.03500
C2894       C  0.09406710  0.06520547  0.41224600    -0.18600
H2895       H  0.02253464  0.01569684  0.41135640     0.10500
H2896       H  0.04132373  0.03692336  0.41652910     0.10600
H2897       H  0.07018193  0.02023757  0.37798491     0.10200
H2898       H  0.05115188  0.99959267  0.37273293     0.11300
H2899       H  0.06617179  0.04966095  0.41238435     0.11400
H2900       H  0.08186585  0.04263729  0.38067468     0.13300
H2901       H  0.09951860  0.06372814  0.37252411     0.09900
H2902       H  0.11922223  0.08362882  0.37890294     0.11900
H2903       H  0.10681362  0.07991001  0.42810650     0.08600
H2904       H  0.08765400  0.05990936  0.42186757     0.11300
C2905       C  0.95127536  0.92633760  0.60932836    -0.03300
C2906       C  0.94017584  0.92895060  0.59743612    -0.05900
C2907       C  0.92785067  0.91839102  0.59513696    -0.21000
C2908       C  0.92630741  0.90494587  0.60464393     0.24700
C2909       C  0.93748265  0.90233162  0.61664381    -0.18500
C2910       C  0.94982094  0.91300243  0.61898015    -0.08500
C2911       C  0.91299600  0.89409288  0.60121336    -0.18800
C2912       C  0.90947836  0.88096447  0.60940946    -0.23600
C2913       C  0.89623311  0.87037020  0.60504716     0.26800
C2914       C  0.88979064  0.86035958  0.61651939    -0.20400
C2915       C  0.87776273  0.84978942  0.61265591    -0.10000
C2916       C  0.87205085  0.84889260  0.59715141    -0.10600
C2917       C  0.87835255  0.85907843  0.58573707    -0.03500
C2918       C  0.89035108  0.86958612  0.58957959    -0.18600
H2919       H  0.94118034  0.93911564  0.58979492     0.10500
H2920       H  0.91952243  0.92070897  0.58576779     0.10600
H2921       H  0.93694036  0.89211911  0.62419033     0.10200
H2922       H  0.95834334  0.91079441  0.62819535     0.11300
H2923       H  0.90550391  0.89740134  0.59142810     0.11400
H2924       H  0.91613339  0.87790367  0.61983770     0.13300
H2925       H  0.89415647  0.86064304  0.62849315     0.09900
H2926       H  0.87320267  0.84209180  0.62173608     0.11900
H2927       H  0.87427779  0.85870999  0.57366755     0.08600
H2928       H  0.89526819  0.87665118  0.58020955     0.11300
C2929       C  0.95509120  0.00680507  0.60863823    -0.03300
C2930       C  0.94372116  0.00551826  0.59675437    -0.05900
C2931       C  0.93256291  0.01738871  0.59461933    -0.21000
C2932       C  0.93246938  0.03071180  0.60438798     0.24700
C2933       C  0.94375988  0.03189232  0.61645370    -0.18500
C2934       C  0.95495211  0.01999667  0.61856786    -0.08500
C2935       C  0.92125690  0.04360161  0.60077453    -0.18800
C2936       C  0.91677961  0.05471752  0.61115216    -0.23600
C2937       C  0.90634212  0.06792796  0.60651154     0.26800
C2938       C  0.89579424  0.07434079  0.61748075    -0.20400
C2939       C  0.88555856  0.08650509  0.61309718    -0.10000
C2940       C  0.88586684  0.09261375  0.59769543    -0.10600
C2941       C  0.89690945  0.08657465  0.58695520    -0.03500
C2942       C  0.90702676  0.07440924  0.59130676    -0.18600
H2943       H  0.94368733  0.99543650  0.58895093     0.10500
H2944       H  0.92408452  0.01625441  0.58517084     0.10600
H2945       H  0.94433770  0.04216805  0.62393878     0.10200
H2946       H  0.96369069  0.02118683  0.62776362     0.11300
H2947       H  0.91627260  0.04377066  0.58900111     0.11400
H2948       H  0.92031960  0.05387556  0.62339498     0.13300
H2949       H  0.89524385  0.06970012  0.62934664     0.09900
H2950       H  0.87731432  0.09099307  0.62171675     0.11900
H2951       H  0.89768791  0.09114243  0.57507915     0.08600
H2952       H  0.91546223  0.07017136  0.58275189     0.11300
C2953       C  0.03345003  0.92188197  0.60693876    -0.03300
C2954       C  0.04361615  0.92208131  0.59395384    -0.05900
C2955       C  0.05406333  0.90964695  0.59139501    -0.21000
C2956       C  0.05463684  0.89679057  0.60179261     0.24700
C2957       C  0.04454861  0.89672496  0.61496675    -0.18500
C2958       C  0.03407912  0.90919642  0.61750923    -0.08500
C2959       C  0.06532638  0.88345659  0.59791640    -0.18800
C2960       C  0.06978537  0.87221103  0.60818977    -0.23600
C2961       C  0.08064144  0.85922675  0.60373381     0.26800
C2962       C  0.09064650  0.85276960  0.61517431    -0.20400
C2963       C  0.10136244  0.84089241  0.61122085    -0.10000
C2964       C  0.10215656  0.83507520  0.59574263    -0.10600
C2965       C  0.09173381  0.84119465  0.58441913    -0.03500
C2966       C  0.08108183  0.85309386  0.58836510    -0.18600
H2967       H  0.04320289  0.93172002  0.58561037     0.10500
H2968       H  0.06161238  0.90998858  0.58112389     0.10600
H2969       H  0.04431112  0.88692828  0.62308254     0.10200
H2970       H  0.02621445  0.90881780  0.62753655     0.11300
H2971       H  0.07019513  0.88325701  0.58609751     0.11400
H2972       H  0.06624740  0.87296625  0.62043027     0.13300
H2973       H  0.09039854  0.85716253  0.62714010     0.09900
H2974       H  0.10913509  0.83640413  0.62026569     0.11900
H2975       H  0.09182930  0.83685548  0.57243731     0.08600
H2976       H  0.07313788  0.85737110  0.57937754     0.11300
C2977       C  0.03747791  0.00295100  0.60575711    -0.03300
C2978       C  0.04763563  0.00082418  0.59294265    -0.05900
C2979       C  0.05987024  0.01141427  0.59018013    -0.21000
C2980       C  0.06228067  0.02435864  0.60017397     0.24700
C2981       C  0.05198257  0.02654202  0.61301749    -0.18500
C2982       C  0.03973323  0.01586809  0.61579816    -0.08500
C2983       C  0.07528227  0.03543832  0.59624951    -0.18800
C2984       C  0.08083353  0.04668409  0.60597632    -0.23600
C2985       C  0.09351036  0.05797812  0.60151068     0.26800
C2986       C  0.10093537  0.06672846  0.61340577    -0.20400
C2987       C  0.11235694  0.07800244  0.60969320    -0.10000
C2988       C  0.11660167  0.08082220  0.59394371    -0.10600
C2989       C  0.10931399  0.07194421  0.58205378    -0.03500
C2990       C  0.09786012  0.06075758  0.58574679    -0.18600
H2991       H  0.04598804  0.99099657  0.58499197     0.10500
H2992       H  0.06747442  0.00949362  0.58012576     0.10600
H2993       H  0.05307456  0.03653699  0.62079427     0.10200
H2994       H  0.03190989  0.01774202  0.62568812     0.11300
H2995       H  0.08075318  0.03381339  0.58484711     0.11400
H2996       H  0.07623338  0.04758094  0.61784131     0.13300
H2997       H  0.09779142  0.06493201  0.62563386     0.09900
H2998       H  0.11771499  0.08462398  0.61916506     0.11900
H2999       H  0.11220771  0.07384152  0.56978477     0.08600
H3000       H  0.09222047  0.05473552  0.57608776     0.11300
C3001       C  0.37035702  0.92480893  0.95777792    -0.03300
C3002       C  0.35975663  0.91227773  0.95599651    -0.05900
C3003       C  0.36197718  0.90113005  0.94406165    -0.21000
C3004       C  0.37493314  0.90219050  0.93384092     0.24700
C3005       C  0.38534082  0.91497773  0.93545313    -0.18500
C3006       C  0.38310970  0.92610082  0.94735906    -0.08500
C3007       C  0.37721637  0.88986036  0.92160864    -0.18800
C3008       C  0.39151463  0.88593544  0.91597069    -0.23600
C3009       C  0.39432474  0.87318250  0.90430530     0.26800
C3010       C  0.40938108  0.86646897  0.90349388    -0.20400
C3011       C  0.41276908  0.85467774  0.89255591    -0.10000
C3012       C  0.40118637  0.84935441  0.88201585    -0.10600
C3013       C  0.38609163  0.85612522  0.88274834    -0.03500
C3014       C  0.38269270  0.86794269  0.89374419    -0.18600
H3015       H  0.34983512  0.91109761  0.96391076     0.10500
H3016       H  0.35371705  0.89148570  0.94298681     0.10600
H3017       H  0.39515596  0.91651404  0.92749353     0.10200
H3018       H  0.39140609  0.93570397  0.94852932     0.11300
H3019       H  0.36696311  0.88316768  0.91800838     0.11400
H3020       H  0.40185186  0.89167868  0.92078499     0.13300
H3021       H  0.41858589  0.87033155  0.91141610     0.09900
H3022       H  0.42452473  0.84976940  0.89236497     0.11900
H3023       H  0.37692654  0.85241889  0.87471869     0.08600
H3024       H  0.37107033  0.87312331  0.89369173     0.11300
C3025       C  0.36909310  0.92193585  0.04035948    -0.03300
C3026       C  0.36014960  0.90806125  0.04037118    -0.05900
C3027       C  0.36334506  0.89613438  0.05126146    -0.21000
C3028       C  0.37552169  0.89786988  0.06229449     0.24700
C3029       C  0.38403666  0.91207480  0.06264494    -0.18500
C3030       C  0.38093101  0.92390695  0.05168956    -0.08500
C3031       C  0.37882535  0.88477757  0.07339935    -0.18800
C3032       C  0.39292586  0.88273393  0.08035719    -0.23600
C3033       C  0.39662022  0.86990775  0.09168781     0.26800
C3034       C  0.41239564  0.86758178  0.09596936    -0.20400
C3035       C  0.41651103  0.85606969  0.10694684    -0.10000
C3036       C  0.40490404  0.84661646  0.11398613    -0.10600
C3037       C  0.38910883  0.84888851  0.10970729    -0.03500
C3038       C  0.38498290  0.86042084  0.09872097    -0.18600
H3039       H  0.35090743  0.90637623  0.03176532     0.10500
H3040       H  0.35647502  0.88540468  0.05088889     0.10600
H3041       H  0.39305463  0.91418041  0.07136234     0.10200
H3042       H  0.38790503  0.93457549  0.05191897     0.11300
H3043       H  0.36950620  0.87627534  0.07520916     0.11400
H3044       H  0.40251205  0.89060596  0.07733942     0.13300
H3045       H  0.42160410  0.87476522  0.09085322     0.09900
H3046       H  0.42879875  0.85470780  0.11001480     0.11900
H3047       H  0.37987553  0.84183210  0.11493721     0.08600
H3048       H  0.37264696  0.86195903  0.09612051     0.11300
C3049       C  0.37921255  0.00489940  0.96222463    -0.03300
C3050       C  0.39212263  0.00254211  0.95221540    -0.05900
C3051       C  0.39691470  0.01443386  0.94191078    -0.21000
C3052       C  0.38885417  0.02886138  0.94136087     0.24700
C3053       C  0.37589827  0.03117937  0.95144931    -0.18500
C3054       C  0.37110197  0.01926253  0.96172777    -0.08500
C3055       C  0.39469037  0.04133685  0.93056824    -0.18800
C3056       C  0.38580217  0.05347130  0.92554584    -0.23600
C3057       C  0.39167236  0.06558685  0.91441028     0.26800
C3058       C  0.38088786  0.07325847  0.90454413    -0.20400
C3059       C  0.38599245  0.08447983  0.89364549    -0.10000
C3060       C  0.40202090  0.08836832  0.89248401    -0.10600
C3061       C  0.41276676  0.08101149  0.90270735    -0.03500
C3062       C  0.40765382  0.06978438  0.91359221    -0.18600
H3063       H  0.39862947  0.99158099  0.95258335     0.10500
H3064       H  0.40699879  0.01238203  0.93438474     0.10600
H3065       H  0.36966203  0.04226501  0.95178665     0.10200
H3066       H  0.36122719  0.02132405  0.96952260     0.11300
H3067       H  0.40654979  0.03999936  0.92601033     0.11400
H3068       H  0.37348220  0.05408057  0.92881423     0.13300
H3069       H  0.36849193  0.07035163  0.90507703     0.09900
H3070       H  0.37738857  0.08995502  0.88600461     0.11900
H3071       H  0.42516354  0.08391229  0.90231459     0.08600
H3072       H  0.41622202  0.06454705  0.92142018     0.11300
C3073       C  0.37102795  0.00232407  0.04391314    -0.03300
C3074       C  0.36243894  0.01643104  0.04359076    -0.05900
C3075       C  0.36448943  0.02772935  0.05539532    -0.21000
C3076       C  0.37525926  0.02522733  0.06767957     0.24700
C3077       C  0.38352881  0.01083749  0.06820682    -0.18500
C3078       C  0.38151599  0.99958550  0.05636729    -0.08500
C3079       C  0.37768657  0.03794561  0.07953524    -0.18800
C3080       C  0.39118323  0.03953090  0.08769788    -0.23600
C3081       C  0.39493818  0.05272403  0.09864109     0.26800
C3082       C  0.41054875  0.05407301  0.10376566    -0.20400
C3083       C  0.41508950  0.06615391  0.11385570    -0.10000
C3084       C  0.40412110  0.07729613  0.11926959    -0.10600
C3085       C  0.38838222  0.07595775  0.11431927    -0.03500
C3086       C  0.38380488  0.06378145  0.10410074    -0.18600
H3087       H  0.35428411  0.01875598  0.03407645     0.10500
H3088       H  0.35788620  0.03861847  0.05474058     0.10600
H3089       H  0.39152422  0.00813975  0.07772585     0.10200
H3090       H  0.38825832  0.98877124  0.05682916     0.11300
H3091       H  0.36856030  0.04679652  0.08058649     0.11400
H3092       H  0.40059261  0.03116482  0.08558999     0.13300
H3093       H  0.41939140  0.04575501  0.09985605     0.09900
H3094       H  0.42730504  0.06669378  0.11741738     0.11900
H3095       H  0.37962611  0.08432258  0.11829385     0.08600
H3096       H  0.37158652  0.06308582  0.10068062     0.11300
C3097       C  0.96276869  0.33639494  0.95866222    -0.03300
C3098       C  0.94922685  0.32700258  0.95965413    -0.05900
C3099       C  0.93730918  0.32844543  0.94840673    -0.21000
C3100       C  0.93870443  0.33936462  0.93607856     0.24700
C3101       C  0.95266311  0.34816150  0.93466944    -0.18500
C3102       C  0.96449570  0.34679622  0.94595253    -0.08500
C3103       C  0.92523429  0.34172232  0.92523006    -0.18800
C3104       C  0.92234499  0.35573293  0.91838784    -0.23600
C3105       C  0.90831026  0.35928130  0.90863263     0.26800
C3106       C  0.90448742  0.37513605  0.90602499    -0.20400
C3107       C  0.89138980  0.37924920  0.89704813    -0.10000
C3108       C  0.88184625  0.36756732  0.89032382    -0.10600
C3109       C  0.88576683  0.35165682  0.89271951    -0.03500
C3110       C  0.89887408  0.34753118  0.90177289    -0.18600
H3111       H  0.94774185  0.31885712  0.96935368     0.10500
H3112       H  0.92675186  0.32141557  0.94963848     0.10600
H3113       H  0.95443772  0.35623221  0.92497697     0.10200
H3114       H  0.97489472  0.35409508  0.94495230     0.11300
H3115       H  0.91686448  0.33216500  0.92407899     0.11400
H3116       H  0.93011095  0.36555491  0.92089894     0.13300
H3117       H  0.91161954  0.38442532  0.91105583     0.09900
H3118       H  0.88881299  0.39161484  0.89531989     0.11900
H3119       H  0.87870581  0.34236617  0.88760931     0.08600
H3120       H  0.90161897  0.33518133  0.90313223     0.11300
C3121       C  0.12454658  0.36508997  0.88683058    -0.03300
C3122       C  0.12201031  0.34878590  0.88832936    -0.05900
C3123       C  0.11124322  0.34294923  0.89932816    -0.21000
C3124       C  0.10264450  0.35326133  0.90891601     0.24700
C3125       C  0.10553314  0.36953481  0.90779687    -0.18500
C3126       C  0.11633567  0.37537581  0.89685825    -0.08500
C3127       C  0.09086346  0.34676742  0.92008067    -0.18800
C3128       C  0.07774807  0.35475290  0.92398089    -0.23600
C3129       C  0.06564270  0.34911248  0.93527840     0.26800
C3130       C  0.05098805  0.35673197  0.93535073    -0.20400
C3131       C  0.03967781  0.35303672  0.94665779    -0.10000
C3132       C  0.04279103  0.34164793  0.95818767    -0.10600
C3133       C  0.05722464  0.33362217  0.95793334    -0.03500
C3134       C  0.06859872  0.33732035  0.94658216    -0.18600
H3135       H  0.12822283  0.34050336  0.88089810     0.10500
H3136       H  0.10937508  0.33035934  0.90011506     0.10600
H3137       H  0.09954309  0.37778997  0.91542748     0.10200
H3138       H  0.11814876  0.38797551  0.89619915     0.11300
H3139       H  0.09267468  0.33489043  0.92441060     0.11400
H3140       H  0.07549861  0.36599372  0.91830887     0.13300
H3141       H  0.04840341  0.36586692  0.92683035     0.09900
H3142       H  0.02864411  0.35942278  0.94672754     0.11900
H3143       H  0.05983503  0.32484777  0.96681142     0.08600
H3144       H  0.07982266  0.33136368  0.94713881     0.11300
C3145       C  0.96265272  0.34672364  0.04037362    -0.03300
C3146       C  0.96442537  0.36020046  0.04970692    -0.05900
C3147       C  0.95302458  0.36417073  0.06083098    -0.21000
C3148       C  0.93953887  0.35483061  0.06283805     0.24700
C3149       C  0.93787376  0.34116075  0.05354801    -0.18500
C3150       C  0.94934545  0.33718783  0.04240649    -0.08500
C3151       C  0.92764048  0.36010326  0.07458963    -0.18800
C3152       C  0.91355140  0.35324704  0.07698981    -0.23600
C3153       C  0.90197758  0.35932594  0.08860275     0.26800
C3154       C  0.89126235  0.34881178  0.09545117    -0.20400
C3155       C  0.88033753  0.35405982  0.10656927    -0.10000
C3156       C  0.87975164  0.37002226  0.11093207    -0.10600
C3157       C  0.89016536  0.38064688  0.10370837    -0.03500
C3158       C  0.90115023  0.37537406  0.09265639    -0.18600
H3159       H  0.97458429  0.36775388  0.04823146     0.10500
H3160       H  0.95467462  0.37473353  0.06777667     0.10600
H3161       H  0.92783943  0.33346774  0.05468845     0.10200
H3162       H  0.94782129  0.32672303  0.03529014     0.11300
H3163       H  0.93074113  0.37029242  0.08163997     0.11400
H3164       H  0.91036497  0.34263414  0.07070904     0.13300
H3165       H  0.89150168  0.33644211  0.09236100     0.09900
H3166       H  0.87237166  0.34557539  0.11176224     0.11900
H3167       H  0.88992322  0.39304363  0.10666255     0.08600
H3168       H  0.90879908  0.38395083  0.08717936     0.11300
C3169       C  0.12404008  0.37001909  0.11311440    -0.03300
C3170       C  0.11897538  0.35425939  0.11353710    -0.05900
C3171       C  0.10758337  0.34887001  0.10295336    -0.21000
C3172       C  0.10095436  0.35912781  0.09183788     0.24700
C3173       C  0.10622848  0.37480871  0.09123322    -0.18500
C3174       C  0.11756543  0.38020008  0.10180364    -0.08500
C3175       C  0.08891939  0.35311235  0.08071326    -0.18800
C3176       C  0.07769356  0.36245512  0.07457128    -0.23600
C3177       C  0.06571606  0.35706819  0.06308647     0.26800
C3178       C  0.05182281  0.36586139  0.06155076    -0.20400
C3179       C  0.04056083  0.36179193  0.05032707    -0.10000
C3180       C  0.04300727  0.34886308  0.04035953    -0.10600
C3181       C  0.05687726  0.34002418  0.04181419    -0.03500
C3182       C  0.06817368  0.34408635  0.05307395    -0.18600
H3183       H  0.12374211  0.34609845  0.12209269     0.10500
H3184       H  0.10381941  0.33670237  0.10355012     0.10600
H3185       H  0.10183376  0.38290479  0.08243635     0.10200
H3186       H  0.12137003  0.39233723  0.10098224     0.11300
H3187       H  0.08894664  0.34060599  0.07810760     0.11400
H3188       H  0.07683665  0.37458172  0.07851930     0.13300
H3189       H  0.04971732  0.37598731  0.06900910     0.09900
H3190       H  0.02998846  0.36883739  0.04927326     0.11900
H3191       H  0.05900426  0.33009484  0.03410713     0.08600
H3192       H  0.07893477  0.33731102  0.05358521     0.11300
C3193       C  0.58891701  0.83718703  0.89059685    -0.03300
C3194       C  0.57759303  0.84229312  0.90153849    -0.05900
C3195       C  0.58129731  0.85377061  0.91269587    -0.21000
C3196       C  0.59641523  0.86034669  0.91331367     0.24700
C3197       C  0.60783143  0.85516063  0.90248387    -0.18500
C3198       C  0.60411930  0.84367125  0.89128503    -0.08500
C3199       C  0.59941756  0.87324560  0.92472727    -0.18800
C3200       C  0.61385076  0.87763345  0.92958307    -0.23600
C3201       C  0.61644894  0.89109575  0.94043922     0.26800
C3202       C  0.63001532  0.89138329  0.94987766    -0.20400
C3203       C  0.63278030  0.90395087  0.96016272    -0.10000
C3204       C  0.62208393  0.91650083  0.96101964    -0.10600
C3205       C  0.60871483  0.91642011  0.95137539    -0.03500
C3206       C  0.60593002  0.90388617  0.94113951    -0.18600
H3207       H  0.56576383  0.83757507  0.90139135     0.10500
H3208       H  0.57225230  0.85762131  0.92081829     0.10600
H3209       H  0.61948986  0.86023733  0.90226569     0.10200
H3210       H  0.61310162  0.84008702  0.88298561     0.11300
H3211       H  0.58916761  0.87909551  0.92962017     0.11400
H3212       H  0.62408037  0.87088618  0.92599641     0.13300
H3213       H  0.63838687  0.88177745  0.94941727     0.09900
H3214       H  0.64318606  0.90387418  0.96751226     0.11900
H3215       H  0.60038991  0.92606868  0.95184944     0.08600
H3216       H  0.59565778  0.90440458  0.93365035     0.11300
C3217       C  0.61948680  0.99645914  0.95191810    -0.03300
C3218       C  0.60596347  0.99366356  0.94295657    -0.05900
C3219       C  0.60201586  0.00366776  0.93056162    -0.21000
C3220       C  0.61149687  0.01668270  0.92682493     0.24700
C3221       C  0.62522558  0.01936632  0.93577318    -0.18500
C3222       C  0.62917172  0.00929069  0.94820764    -0.08500
C3223       C  0.60611427  0.02725599  0.91392345    -0.18800
C3224       C  0.61440184  0.03944980  0.90809087    -0.23600
C3225       C  0.60830978  0.04993086  0.89545412     0.26800
C3226       C  0.61907093  0.05848507  0.88631437    -0.20400
C3227       C  0.61382462  0.06868170  0.87451268    -0.10000
C3228       C  0.59763785  0.07069978  0.87170150    -0.10600
C3229       C  0.58685168  0.06221335  0.88091617    -0.03500
C3230       C  0.59210007  0.05200018  0.89269533    -0.18600
H3231       H  0.59828379  0.98389026  0.94579399     0.10500
H3232       H  0.59135535  0.00132665  0.92398528     0.10600
H3233       H  0.63281251  0.02931018  0.93355800     0.10200
H3234       H  0.63959608  0.01165192  0.95514030     0.11300
H3235       H  0.59473858  0.02457210  0.90881097     0.11400
H3236       H  0.62624703  0.04168337  0.91220628     0.13300
H3237       H  0.63160047  0.05725227  0.88829198     0.09900
H3238       H  0.62247927  0.07511693  0.86772379     0.11900
H3239       H  0.57430894  0.06356690  0.87915004     0.08600
H3240       H  0.58336495  0.04609376  0.89981309     0.11300
C3241       C  0.59905836  0.85192627  0.12297449    -0.03300
C3242       C  0.61514306  0.85265933  0.11917261    -0.05900
C3243       C  0.62052254  0.86298141  0.10753656    -0.21000
C3244       C  0.60999977  0.87287185  0.09952786     0.24700
C3245       C  0.59386685  0.87197512  0.10317017    -0.18500
C3246       C  0.58849210  0.86168058  0.11479955    -0.08500
C3247       C  0.61614590  0.88338711  0.08696617    -0.18800
C3248       C  0.60854236  0.89645695  0.08217157    -0.23600
C3249       C  0.61361868  0.90674817  0.06892234     0.26800
C3250       C  0.60432168  0.91997243  0.06545221    -0.20400
C3251       C  0.60785930  0.92959741  0.05263842    -0.10000
C3252       C  0.62084468  0.92627156  0.04302992    -0.10600
C3253       C  0.63042664  0.91331630  0.04658247    -0.03500
C3254       C  0.62683597  0.90357101  0.05937099    -0.18600
H3255       H  0.62360613  0.84525036  0.12516468     0.10500
H3256       H  0.63297164  0.86328614  0.10482179     0.10600
H3257       H  0.58525406  0.87890606  0.09687161     0.10200
H3258       H  0.57600545  0.86131908  0.11729819     0.11300
H3259       H  0.62736451  0.88021533  0.08183671     0.11400
H3260       H  0.59785001  0.89990905  0.08823254     0.13300
H3261       H  0.59408468  0.92273943  0.07253168     0.09900
H3262       H  0.60030625  0.93954100  0.05004207     0.11900
H3263       H  0.64052243  0.91061958  0.03928216     0.08600
H3264       H  0.63435838  0.89354706  0.06143391     0.11300
C3265       C  0.59943081  0.08782000  0.10629958    -0.03300
C3266       C  0.61531347  0.08396535  0.10377978    -0.05900
C3267       C  0.61954915  0.07304168  0.09222859    -0.21000
C3268       C  0.60804821  0.06563926  0.08298771     0.24700
C3269       C  0.59216102  0.06974207  0.08525580    -0.18500
C3270       C  0.58791855  0.08063763  0.09682767    -0.08500
C3271       C  0.61316011  0.05384684  0.07109970    -0.18800
C3272       C  0.60361995  0.04257379  0.06534325    -0.23600
C3273       C  0.60882618  0.03002689  0.05429806     0.26800
C3274       C  0.59928841  0.01663349  0.05266832    -0.20400
C3275       C  0.60360855  0.00445441  0.04253751    -0.10000
C3276       C  0.61749375  0.00548966  0.03371821    -0.10600
C3277       C  0.62703980  0.01885705  0.03513239    -0.03500
C3278       C  0.62274071  0.03107681  0.04530172    -0.18600
H3279       H  0.62450389  0.08931092  0.11079006     0.10500
H3280       H  0.63187610  0.07021278  0.09064289     0.10600
H3281       H  0.58294612  0.06477119  0.07804320     0.10200
H3282       H  0.57558130  0.08345473  0.09829959     0.11300
H3283       H  0.62549960  0.05390462  0.06788167     0.11400
H3284       H  0.59162283  0.04179152  0.06961664     0.13300
H3285       H  0.58845953  0.01555508  0.05930901     0.09900
H3286       H  0.59602520  0.99427100  0.04141332     0.11900
H3287       H  0.63770117  0.01987916  0.02822258     0.08600
H3288       H  0.63021326  0.04134803  0.04579329     0.11300
C3289       C  0.88028010  0.56456189  0.89022432    -0.03300
C3290       C  0.88880156  0.55402771  0.89973330    -0.05900
C3291       C  0.90086354  0.55935450  0.90941673    -0.21000
C3292       C  0.90471051  0.57536371  0.91005655     0.24700
C3293       C  0.89618832  0.58606047  0.90067139    -0.18500
C3294       C  0.88406228  0.58067991  0.89082241    -0.08500
C3295       C  0.91807973  0.58001047  0.92027187    -0.18800
C3296       C  0.92034997  0.59453175  0.92617531    -0.23600
C3297       C  0.93334276  0.59789115  0.93740164     0.26800
C3298       C  0.94760379  0.58945135  0.93696280    -0.20400
C3299       C  0.95912779  0.59196391  0.94837789    -0.10000
C3300       C  0.95675346  0.60308322  0.96033442    -0.10600
C3301       C  0.94284600  0.61199736  0.96044749    -0.03500
C3302       C  0.93126488  0.60946784  0.94901237    -0.18600
H3303       H  0.88628130  0.54153577  0.89965219     0.10500
H3304       H  0.90724498  0.55085913  0.91647788     0.10600
H3305       H  0.89904952  0.59846551  0.90063348     0.10200
H3306       H  0.87776530  0.58909225  0.88360720     0.11300
H3307       H  0.92586258  0.57057755  0.92398971     0.11400
H3308       H  0.91183944  0.60376962  0.92384587     0.13300
H3309       H  0.94990280  0.58085734  0.92785332     0.09900
H3310       H  0.96983976  0.58505787  0.94803427     0.11900
H3311       H  0.94088427  0.62072561  0.96952739     0.08600
H3312       H  0.92047545  0.61623719  0.94950413     0.11300
C3313       C  0.95949452  0.59848910  0.04275912    -0.03300
C3314       C  0.96332694  0.58628310  0.05319173    -0.05900
C3315       C  0.95245011  0.58119323  0.06437139    -0.21000
C3316       C  0.93756394  0.58824550  0.06541473     0.24700
C3317       C  0.93385941  0.60079142  0.05521602    -0.18500
C3318       C  0.94480654  0.60593102  0.04405090    -0.08500
C3319       C  0.92602071  0.58148700  0.07661490    -0.18800
C3320       C  0.91345127  0.58935136  0.08216359    -0.23600
C3321       C  0.90215263  0.58220548  0.09339264     0.26800
C3322       C  0.89364931  0.59204259  0.10355222    -0.20400
C3323       C  0.88311227  0.58567767  0.11445818    -0.10000
C3324       C  0.88076065  0.56930988  0.11531554    -0.10600
C3325       C  0.88900393  0.55949602  0.10486443    -0.03500
C3326       C  0.89951985  0.56586216  0.09397295    -0.18600
H3327       H  0.97456748  0.58033265  0.05231277     0.10500
H3328       H  0.95557123  0.57149289  0.07204533     0.10600
H3329       H  0.92238320  0.60627996  0.05538354     0.10200
H3330       H  0.94163538  0.61532853  0.03603367     0.11300
H3331       H  0.92841270  0.56969256  0.08091851     0.11400
H3332       H  0.91180211  0.60165284  0.07913785     0.13300
H3333       H  0.89532047  0.60468009  0.10319128     0.09900
H3334       H  0.87684758  0.59360030  0.12223078     0.11900
H3335       H  0.88730607  0.54686408  0.10502918     0.08600
H3336       H  0.90537445  0.55793869  0.08590945     0.11300
C3337       C  0.03656546  0.60304175  0.95801872    -0.03300
C3338       C  0.05113427  0.61079723  0.95761191    -0.05900
C3339       C  0.06178074  0.60780599  0.94542713    -0.21000
C3340       C  0.05803406  0.59704651  0.93346501     0.24700
C3341       C  0.04310975  0.58989826  0.93348726    -0.18500
C3342       C  0.03257384  0.59274403  0.94573874    -0.08500
C3343       C  0.07005002  0.59328219  0.92137491    -0.18800
C3344       C  0.07061623  0.57922439  0.91407344    -0.23600
C3345       C  0.08330662  0.57443716  0.90307247     0.26800
C3346       C  0.08556220  0.55832195  0.90030809    -0.20400
C3347       C  0.09751944  0.55313415  0.89033419    -0.10000
C3348       C  0.10745918  0.56397723  0.88275161    -0.10600
C3349       C  0.10500449  0.58014839  0.88522962    -0.03500
C3350       C  0.09303422  0.58534714  0.89526550    -0.18600
H3351       H  0.05435652  0.61892944  0.96687895     0.10500
H3352       H  0.07313021  0.61359636  0.94556082     0.10600
H3353       H  0.03953563  0.58203842  0.92413783     0.10200
H3354       H  0.02133620  0.58673475  0.94575575     0.11300
H3355       H  0.07938384  0.60178948  0.91955936     0.11400
H3356       H  0.06203549  0.57027366  0.91713743     0.13300
H3357       H  0.07816423  0.54967017  0.90605800     0.09900
H3358       H  0.09898844  0.54058717  0.88862867     0.11900
H3359       H  0.11240287  0.58880792  0.87951078     0.08600
H3360       H  0.09140253  0.59788412  0.89670125     0.11300
C3361       C  0.03908983  0.60058056  0.04080088    -0.03300
C3362       C  0.05349613  0.60865530  0.04089339    -0.05900
C3363       C  0.06452837  0.60582209  0.05279235    -0.21000
C3364       C  0.06133378  0.59495512  0.06485839     0.24700
C3365       C  0.04673309  0.58711163  0.06484406    -0.18500
C3366       C  0.03587442  0.58974695  0.05284016    -0.08500
C3367       C  0.07342182  0.59216841  0.07723317    -0.18800
C3368       C  0.07354531  0.57923354  0.08641069    -0.23600
C3369       C  0.08621218  0.57544181  0.09778345     0.26800
C3370       C  0.08863421  0.55957791  0.10159752    -0.20400
C3371       C  0.10085225  0.55514433  0.11156477    -0.10000
C3372       C  0.11082155  0.56651648  0.11820132    -0.10600
C3373       C  0.10799735  0.58251643  0.11500445    -0.03500
C3374       C  0.09580667  0.58696391  0.10482721    -0.18600
H3375       H  0.05618171  0.61713629  0.03175769     0.10500
H3376       H  0.07561882  0.61209067  0.05253614     0.10600
H3377       H  0.04342594  0.57907018  0.07412161     0.10200
H3378       H  0.02483178  0.58338627  0.05300452     0.11300
H3379       H  0.08303655  0.60052953  0.07805643     0.11400
H3380       H  0.06475270  0.57017657  0.08465003     0.13300
H3381       H  0.08126569  0.55049693  0.09652579     0.09900
H3382       H  0.10253560  0.54273962  0.11398834     0.11900
H3383       H  0.11539478  0.59155399  0.12009211     0.08600
H3384       H  0.09393526  0.59935418  0.10255348     0.11300
C3385       C  0.37855941  0.34664390  0.90018770    -0.03300
C3386       C  0.38401352  0.34662897  0.88454741    -0.05900
C3387       C  0.39434345  0.35827828  0.87926274    -0.21000
C3388       C  0.39957612  0.37011045  0.88949305     0.24700
C3389       C  0.39385204  0.37036569  0.90504224    -0.18500
C3390       C  0.38350713  0.35872651  0.91033340    -0.08500
C3391       C  0.41078441  0.38210711  0.88350183    -0.18800
C3392       C  0.42096160  0.38973387  0.89293342    -0.23600
C3393       C  0.43260300  0.40146922  0.88726684     0.26800
C3394       C  0.44562526  0.40478174  0.89686023    -0.20400
C3395       C  0.45679294  0.41588219  0.89223093    -0.10000
C3396       C  0.45506340  0.42399304  0.87797751    -0.10600
C3397       C  0.44200995  0.42093705  0.86839579    -0.03500
C3398       C  0.43083148  0.40974577  0.87298433    -0.18600
H3399       H  0.38036997  0.33757332  0.87636096     0.10500
H3400       H  0.39843818  0.35791619  0.86719019     0.10600
H3401       H  0.39715041  0.37963083  0.91311948     0.10200
H3402       H  0.37937531  0.35923307  0.92238104     0.11300
H3403       H  0.41125873  0.38392374  0.87086969     0.11400
H3404       H  0.42141123  0.38669758  0.90533774     0.13300
H3405       H  0.44720482  0.39869862  0.90795924     0.09900
H3406       H  0.46678860  0.41821192  0.89978293     0.11900
H3407       H  0.44049877  0.42722871  0.85740805     0.08600
H3408       H  0.42074287  0.40787890  0.86547328     0.11300
C3409       C  0.60564710  0.34059677  0.90678106    -0.03300
C3410       C  0.59705128  0.34880623  0.91829312    -0.05900
C3411       C  0.58639960  0.36056938  0.91401533    -0.21000
C3412       C  0.58399145  0.36448489  0.89813963     0.24700
C3413       C  0.59263190  0.35631112  0.88656862    -0.18500
C3414       C  0.60336449  0.34454848  0.89086947    -0.08500
C3415       C  0.57203277  0.37678708  0.89441959    -0.18800
C3416       C  0.56929205  0.38280613  0.87997700    -0.23600
C3417       C  0.55705684  0.39498051  0.87695769     0.26800
C3418       C  0.55881585  0.40517543  0.86404423    -0.20400
C3419       C  0.54773235  0.41701826  0.86112361    -0.10000
C3420       C  0.53461631  0.41877121  0.87100660    -0.10600
C3421       C  0.53259326  0.40832317  0.88364025    -0.03500
C3422       C  0.54360902  0.39647346  0.88652968    -0.18600
H3423       H  0.59849313  0.34613748  0.93067316     0.10500
H3424       H  0.57992794  0.36659075  0.92320764     0.10600
H3425       H  0.59109241  0.35868971  0.87418094     0.10200
H3426       H  0.60975732  0.33844228  0.88168864     0.11300
H3427       H  0.56535287  0.38134118  0.90430812     0.11400
H3428       H  0.57656190  0.37935479  0.87009234     0.13300
H3429       H  0.56895123  0.40416320  0.85637936     0.09900
H3430       H  0.54947706  0.42496130  0.85130108     0.11900
H3431       H  0.52253056  0.40946983  0.89138409     0.08600
H3432       H  0.54146396  0.38849024  0.89621304     0.11300
C3433       C  0.45815075  0.50592069  0.87116924    -0.03300
C3434       C  0.44458024  0.50609043  0.86176266    -0.05900
C3435       C  0.43281449  0.51733427  0.86429106    -0.21000
C3436       C  0.43430976  0.52852447  0.87636067     0.24700
C3437       C  0.44823588  0.52871933  0.88535612    -0.18500
C3438       C  0.45998561  0.51746654  0.88282673    -0.08500
C3439       C  0.42122076  0.53985725  0.87913908    -0.18800
C3440       C  0.41849786  0.54654186  0.89328049    -0.23600
C3441       C  0.40561348  0.55796325  0.89675110     0.26800
C3442       C  0.40323388  0.56237983  0.91249147    -0.20400
C3443       C  0.39175488  0.57341927  0.91652549    -0.10000
C3444       C  0.38227775  0.58041100  0.90490042    -0.10600
C3445       C  0.38455425  0.57598554  0.88911376    -0.03500
C3446       C  0.39609525  0.56490470  0.88505636    -0.18600
H3447       H  0.44295268  0.49726504  0.85271211     0.10500
H3448       H  0.42232346  0.51703343  0.85706568     0.10600
H3449       H  0.45013074  0.53751204  0.89435804     0.10200
H3450       H  0.47037520  0.51753836  0.89020278     0.11300
H3451       H  0.41327198  0.54201620  0.86941182     0.11400
H3452       H  0.42592079  0.54321360  0.90312682     0.13300
H3453       H  0.41036942  0.55731789  0.92176937     0.09900
H3454       H  0.39039312  0.57651341  0.92881326     0.11900
H3455       H  0.37747329  0.58113867  0.87985468     0.08600
H3456       H  0.39757559  0.56209678  0.87275030     0.11300
C3457       C  0.53903211  0.50108894  0.87102924    -0.03300
C3458       C  0.55170196  0.50232232  0.86051508    -0.05900
C3459       C  0.56365083  0.51334071  0.86320059    -0.21000
C3460       C  0.56322793  0.52306691  0.87656271     0.24700
C3461       C  0.55037094  0.52188576  0.88695025    -0.18500
C3462       C  0.53843423  0.51096393  0.88421910    -0.08500
C3463       C  0.57598474  0.53472606  0.87918004    -0.18800
C3464       C  0.58023926  0.53937071  0.89372793    -0.23600
C3465       C  0.59202479  0.55182387  0.89719733     0.26800
C3466       C  0.59754230  0.55316068  0.91270436    -0.20400
C3467       C  0.60749601  0.56547515  0.91704380    -0.10000
C3468       C  0.61227831  0.57674005  0.90593558    -0.10600
C3469       C  0.60710777  0.57524814  0.89029140    -0.03500
C3470       C  0.59698014  0.56298005  0.88596432    -0.18600
H3471       H  0.55230652  0.49476479  0.85026960     0.10500
H3472       H  0.57333175  0.51414974  0.85494709     0.10600
H3473       H  0.54934601  0.52955108  0.89706559     0.10200
H3474       H  0.52870045  0.51017216  0.89241621     0.11300
H3475       H  0.58218693  0.53914287  0.86893359     0.11400
H3476       H  0.57485394  0.53364297  0.90381209     0.13300
H3477       H  0.59391490  0.54477312  0.92160478     0.09900
H3478       H  0.61138360  0.56622281  0.92915878     0.11900
H3479       H  0.61049262  0.58384729  0.88150605     0.08600
H3480       H  0.59273125  0.56263685  0.87398129     0.11300
C3481       C  0.45843079  0.42333425  0.13291580    -0.03300
C3482       C  0.45798352  0.40948000  0.14193271    -0.05900
C3483       C  0.44590854  0.39847457  0.13965272    -0.21000
C3484       C  0.43417834  0.40113792  0.12830017     0.24700
C3485       C  0.43430587  0.41539453  0.11986037    -0.18500
C3486       C  0.44637792  0.42625092  0.12203142    -0.08500
C3487       C  0.42200925  0.38891324  0.12534835    -0.18800
C3488       C  0.41514138  0.38728377  0.11113195    -0.23600
C3489       C  0.40297910  0.37541785  0.10693264     0.26800
C3490       C  0.39726000  0.37554008  0.09143670    -0.20400
C3491       C  0.38607397  0.36461813  0.08651862    -0.10000
C3492       C  0.38020320  0.35327159  0.09700984    -0.10600
C3493       C  0.38568069  0.35322743  0.11261997    -0.03500
C3494       C  0.39698990  0.36416474  0.11755520    -0.18600
H3495       H  0.46704681  0.40713950  0.15057710     0.10500
H3496       H  0.44591910  0.38771585  0.14650051     0.10600
H3497       H  0.42509376  0.41827296  0.11156518     0.10200
H3498       H  0.44637966  0.43696861  0.11511068     0.11300
H3499       H  0.41932541  0.38084129  0.13484774     0.11400
H3500       H  0.41892035  0.39495285  0.10163634     0.13300
H3501       H  0.40153107  0.38410675  0.08300365     0.09900
H3502       H  0.38202163  0.36509901  0.07444393     0.11900
H3503       H  0.38139354  0.34460029  0.12097103     0.08600
H3504       H  0.40094866  0.36361629  0.12961674     0.11300
C3505       C  0.45571093  0.50283935  0.12989837    -0.03300
C3506       C  0.45497824  0.51643692  0.13922346    -0.05900
C3507       C  0.44271879  0.52722564  0.13715955    -0.21000
C3508       C  0.43117338  0.52463978  0.12563218     0.24700
C3509       C  0.43169310  0.51068699  0.11670874    -0.18500
C3510       C  0.44390529  0.49993935  0.11878813    -0.08500
C3511       C  0.41888393  0.53674848  0.12297263    -0.18800
C3512       C  0.41227667  0.53893865  0.10875059    -0.23600
C3513       C  0.40082654  0.55157185  0.10513409     0.26800
C3514       C  0.39940821  0.55646089  0.08944914    -0.20400
C3515       C  0.38890434  0.56834647  0.08531344    -0.10000
C3516       C  0.37939534  0.57554219  0.09677172    -0.10600
C3517       C  0.38054720  0.57043384  0.11248577    -0.03500
C3518       C  0.39117716  0.55854691  0.11664914    -0.18600
H3519       H  0.46400418  0.51876518  0.14790808     0.10500
H3520       H  0.44247391  0.53779981  0.14427586     0.10600
H3521       H  0.42269498  0.50799981  0.10812263     0.10200
H3522       H  0.44428984  0.48943062  0.11157651     0.11300
H3523       H  0.41619465  0.54475268  0.13255716     0.11400
H3524       H  0.41627048  0.53187299  0.09888071     0.13300
H3525       H  0.40660496  0.55117401  0.08034303     0.09900
H3526       H  0.38827098  0.57188360  0.07308323     0.11900
H3527       H  0.37329758  0.57565150  0.12157730     0.08600
H3528       H  0.39163721  0.55474610  0.12879359     0.11300
C3529       C  0.61744896  0.35140474  0.09618503    -0.03300
C3530       C  0.60877030  0.35884687  0.08421608    -0.05900
C3531       C  0.59820724  0.37092064  0.08777336    -0.21000
C3532       C  0.59592712  0.37584834  0.10336906     0.24700
C3533       C  0.60479245  0.36859947  0.11537163    -0.18500
C3534       C  0.61540770  0.35649544  0.11179942    -0.08500
C3535       C  0.58432757  0.38864515  0.10637817    -0.18800
C3536       C  0.57827046  0.39208419  0.12063613    -0.23600
C3537       C  0.56583478  0.40417379  0.12301291     0.26800
C3538       C  0.55565900  0.40270375  0.13596450    -0.20400
C3539       C  0.54340765  0.41345180  0.13826228    -0.10000
C3540       C  0.54121341  0.42594968  0.12770303    -0.10600
C3541       C  0.55164246  0.42775452  0.11502352    -0.03500
C3542       C  0.56388742  0.41702948  0.11271891    -0.18600
H3543       H  0.61009808  0.35534813  0.07203342     0.10500
H3544       H  0.59166848  0.37634813  0.07826413     0.10600
H3545       H  0.60377058  0.37226643  0.12750351     0.10200
H3546       H  0.62197094  0.35109439  0.12129624     0.11300
H3547       H  0.57990012  0.39485457  0.09612977     0.11400
H3548       H  0.58157075  0.38510766  0.13079676     0.13300
H3549       H  0.55701610  0.39303236  0.14416745     0.09900
H3550       H  0.53557363  0.41198776  0.14821323     0.11900
H3551       H  0.55022007  0.43744600  0.10685216     0.08600
H3552       H  0.57181640  0.41893616  0.10294605     0.11300
C3553       C  0.53728496  0.50610096  0.12069859    -0.03300
C3554       C  0.54806935  0.50353329  0.10847564    -0.05900
C3555       C  0.55891187  0.51517833  0.10440821    -0.21000
C3556       C  0.55924144  0.52956366  0.11252787     0.24700
C3557       C  0.54838365  0.53212700  0.12478633    -0.18500
C3558       C  0.53757571  0.52043551  0.12888648    -0.08500
C3559       C  0.57059443  0.54177161  0.10735531    -0.18800
C3560       C  0.57533571  0.55384612  0.11645056    -0.23600
C3561       C  0.58669475  0.56585936  0.11085153     0.26800
C3562       C  0.59630196  0.57358708  0.12181133    -0.20400
C3563       C  0.60734585  0.58472358  0.11683008    -0.10000
C3564       C  0.60884635  0.58850153  0.10076806    -0.10600
C3565       C  0.59887683  0.58108494  0.08987247    -0.03500
C3566       C  0.58790534  0.56992437  0.09484665    -0.18600
H3567       H  0.54793367  0.49257899  0.10195454     0.10500
H3568       H  0.56704370  0.51296365  0.09483954     0.10600
H3569       H  0.54791309  0.54321699  0.13100483     0.10200
H3570       H  0.52926008  0.52263710  0.13829691     0.11300
H3571       H  0.57573699  0.54031827  0.09574609     0.11400
H3572       H  0.57150838  0.55456235  0.12861314     0.13300
H3573       H  0.59543625  0.57081149  0.13422933     0.09900
H3574       H  0.61473223  0.59032122  0.12556743     0.11900
H3575       H  0.59958449  0.58382265  0.07744275     0.08600
H3576       H  0.58028279  0.56465605  0.08612449     0.11300
C3577       C  0.88493339  0.42575167  0.46385396    -0.03300
C3578       C  0.89889426  0.41711572  0.46531230    -0.05900
C3579       C  0.90310914  0.40619002  0.45381885    -0.21000
C3580       C  0.89341677  0.40361561  0.44069857     0.24700
C3581       C  0.87937190  0.41233743  0.43925899    -0.18500
C3582       C  0.87517566  0.42330658  0.45079071    -0.08500
C3583       C  0.89877977  0.39216455  0.42863954    -0.18800
C3584       C  0.88930551  0.38563401  0.41776693    -0.23600
C3585       C  0.89491476  0.37386489  0.40612575     0.26800
C3586       C  0.88395352  0.36355336  0.39938802    -0.20400
C3587       C  0.88874966  0.35215301  0.38856855    -0.10000
C3588       C  0.90465246  0.35086364  0.38416693    -0.10600
C3589       C  0.91559950  0.36138187  0.39068596    -0.03500
C3590       C  0.91078322  0.37283357  0.40146092    -0.18600
H3591       H  0.90662810  0.41901980  0.47526158     0.10500
H3592       H  0.91403251  0.39975413  0.45516019     0.10600
H3593       H  0.87177544  0.41107403  0.42914408     0.10200
H3594       H  0.86444004  0.43004725  0.44945031     0.11300
H3595       H  0.91096663  0.38843497  0.42932446     0.11400
H3596       H  0.87681085  0.38820508  0.41788773     0.13300
H3597       H  0.87164644  0.36419707  0.40264475     0.09900
H3598       H  0.87997264  0.34429311  0.38373080     0.11900
H3599       H  0.92789087  0.36087068  0.38737213     0.08600
H3600       H  0.91951606  0.38094941  0.40588630     0.11300
C3601       C  0.88182716  0.42509318  0.54490997    -0.03300
C3602       C  0.87076260  0.42430318  0.55712649    -0.05900
C3603       C  0.87246510  0.41325622  0.56922017    -0.21000
C3604       C  0.88537201  0.40292829  0.56946989     0.24700
C3605       C  0.89633632  0.40358795  0.55702006    -0.18500
C3606       C  0.89458197  0.41461218  0.54489268    -0.08500
C3607       C  0.88681325  0.39155108  0.58275980    -0.18800
C3608       C  0.90059997  0.38512846  0.58724631    -0.23600
C3609       C  0.90250393  0.37419500  0.60084203     0.26800
C3610       C  0.91768513  0.37192491  0.60686350    -0.20400
C3611       C  0.92034932  0.36153601  0.61929641    -0.10000
C3612       C  0.90789557  0.35294661  0.62602747    -0.10600
C3613       C  0.89262384  0.35520869  0.62007576    -0.03500
C3614       C  0.88993954  0.36569928  0.60758623    -0.18600
H3615       H  0.86084378  0.43230925  0.55731450     0.10500
H3616       H  0.86378262  0.41293331  0.57855093     0.10600
H3617       H  0.90617562  0.39554020  0.55645583     0.10200
H3618       H  0.90322758  0.41506013  0.53553381     0.11300
H3619       H  0.87628350  0.38919565  0.58957359     0.11400
H3620       H  0.91128535  0.38861834  0.58119434     0.13300
H3621       H  0.92759907  0.37822096  0.60189946     0.09900
H3622       H  0.93229052  0.36014496  0.62350278     0.11900
H3623       H  0.88277549  0.34874145  0.62492614     0.08600
H3624       H  0.87809887  0.36679738  0.60308902     0.11300
C3625       C  0.87612160  0.50771322  0.46361210    -0.03300
C3626       C  0.86719041  0.50701628  0.44972617    -0.05900
C3627       C  0.86870400  0.51874279  0.43822766    -0.21000
C3628       C  0.87922189  0.53130865  0.44037102     0.24700
C3629       C  0.88768589  0.53227994  0.45457876    -0.18500
C3630       C  0.88629230  0.52050937  0.46595671    -0.08500
C3631       C  0.88135125  0.54304864  0.42753678    -0.18800
C3632       C  0.89501372  0.55080677  0.42542969    -0.23600
C3633       C  0.89828774  0.56187855  0.41228300     0.26800
C3634       C  0.91405433  0.56514506  0.40872398    -0.20400
C3635       C  0.91796554  0.57563080  0.39672618    -0.10000
C3636       C  0.90618132  0.58330491  0.38800929    -0.10600
C3637       C  0.89033101  0.58014258  0.39159302    -0.03500
C3638       C  0.88640034  0.56952559  0.40362171    -0.18600
H3639       H  0.85921987  0.49727996  0.44772019     0.10500
H3640       H  0.86193097  0.51780040  0.42747347     0.10600
H3641       H  0.89543564  0.54208388  0.45697446     0.10200
H3642       H  0.89327631  0.52131302  0.47658776     0.11300
H3643       H  0.87192554  0.54436175  0.41903159     0.11400
H3644       H  0.90481389  0.54821385  0.43319614     0.13300
H3645       H  0.92344966  0.55950286  0.41524360     0.09900
H3646       H  0.93030008  0.57777008  0.39437299     0.11900
H3647       H  0.88096432  0.58588550  0.38513856     0.08600
H3648       H  0.87410379  0.56759731  0.40624346     0.11300
C3649       C  0.88167731  0.50737539  0.54330768    -0.03300
C3650       C  0.89371125  0.51811779  0.53994825    -0.05900
C3651       C  0.89714975  0.53023457  0.55042838    -0.21000
C3652       C  0.88865015  0.53189747  0.56450260     0.24700
C3653       C  0.87657190  0.52102475  0.56790064    -0.18500
C3654       C  0.87310872  0.50887880  0.55732744    -0.08500
C3655       C  0.89336244  0.54478560  0.57533469    -0.18800
C3656       C  0.88550963  0.54901751  0.58844067    -0.23600
C3657       C  0.89128832  0.56151685  0.59921775     0.26800
C3658       C  0.88058299  0.56918163  0.60919915    -0.20400
C3659       C  0.88576843  0.58057628  0.61989729    -0.10000
C3660       C  0.90182737  0.58440543  0.62091796    -0.10600
C3661       C  0.91249789  0.57681123  0.61082631    -0.03500
C3662       C  0.90733936  0.56543786  0.60020976    -0.18600
H3663       H  0.90050585  0.51704125  0.52920975     0.10500
H3664       H  0.90657835  0.53831397  0.54753997     0.10600
H3665       H  0.86989973  0.52160965  0.57870229     0.10200
H3666       H  0.86382062  0.50060083  0.56008915     0.11300
H3667       H  0.90382300  0.55131647  0.57205061     0.11400
H3668       H  0.87436277  0.54354808  0.59131680     0.13300
H3669       H  0.86818096  0.56629094  0.60876500     0.09900
H3670       H  0.87723547  0.58617604  0.62752914     0.11900
H3671       H  0.92495999  0.57939801  0.61131837     0.08600
H3672       H  0.91610434  0.55945591  0.59319240     0.11300
C3673       C  0.45940115  0.85838635  0.46114039    -0.03300
C3674       C  0.44870241  0.87082991  0.46272244    -0.05900
C3675       C  0.43727779  0.87345461  0.45123432    -0.21000
C3676       C  0.43627017  0.86370608  0.43791245     0.24700
C3677       C  0.44698817  0.85110663  0.43642498    -0.18500
C3678       C  0.45842608  0.84848484  0.44797869    -0.08500
C3679       C  0.42411425  0.86754677  0.42588836    -0.18800
C3680       C  0.42113063  0.85902057  0.41284321    -0.23600
C3681       C  0.40895162  0.86368092  0.40117576     0.26800
C3682       C  0.40179505  0.85204587  0.39189580    -0.20400
C3683       C  0.39013670  0.85604101  0.38096454    -0.10000
C3684       C  0.38549005  0.87181471  0.37900572    -0.10600
C3685       C  0.39292835  0.88348351  0.38806261    -0.03500
C3686       C  0.40457813  0.87949800  0.39892570    -0.18600
H3687       H  0.44932358  0.87861524  0.47279901     0.10500
H3688       H  0.42925443  0.88325508  0.45271897     0.10600
H3689       H  0.44682537  0.84332246  0.42639040     0.10200
H3690       H  0.46660993  0.83880285  0.44661893     0.11300
H3691       H  0.41704010  0.87794100  0.42814655     0.11400
H3692       H  0.42721166  0.84801036  0.41078179     0.13300
H3693       H  0.40508756  0.83979996  0.39325946     0.09900
H3694       H  0.38470786  0.84675831  0.37413609     0.11900
H3695       H  0.38983111  0.89577690  0.38671625     0.08600
H3696       H  0.41025830  0.88890174  0.40534360     0.11300
C3697       C  0.54183688  0.85560745  0.46341399    -0.03300
C3698       C  0.55347643  0.86701689  0.46592884    -0.05900
C3699       C  0.56557161  0.86909277  0.45502795    -0.21000
C3700       C  0.56635453  0.85977524  0.44141026     0.24700
C3701       C  0.55476464  0.84818448  0.43895733    -0.18500
C3702       C  0.54263293  0.84610127  0.44992137    -0.08500
C3703       C  0.57874112  0.86343208  0.42964058    -0.18800
C3704       C  0.58343875  0.85361069  0.41810600    -0.23600
C3705       C  0.59512249  0.85845476  0.40601434     0.26800
C3706       C  0.60457066  0.84706768  0.39864077    -0.20400
C3707       C  0.61557568  0.85147088  0.38715665    -0.10000
C3708       C  0.61714669  0.86734874  0.38269171    -0.10600
C3709       C  0.60747231  0.87864655  0.38991633    -0.03500
C3710       C  0.59657269  0.87426942  0.40135137    -0.18600
H3711       H  0.55301992  0.87451679  0.47622872     0.10500
H3712       H  0.57425453  0.87817880  0.45714739     0.10600
H3713       H  0.55471357  0.84104579  0.42842558     0.10200
H3714       H  0.53370643  0.83726763  0.44777224     0.11300
H3715       H  0.58446493  0.87479759  0.43078213     0.11400
H3716       H  0.57901056  0.84164233  0.41768459     0.13300
H3717       H  0.60351863  0.83477461  0.40186552     0.09900
H3718       H  0.62275245  0.84244890  0.38172184     0.11900
H3719       H  0.60823374  0.89096007  0.38670359     0.08600
H3720       H  0.58908757  0.88332087  0.40626749     0.11300
C3721       C  0.45671122  0.85727714  0.54178747    -0.03300
C3722       C  0.44472027  0.86825360  0.53888754    -0.05900
C3723       C  0.43285060  0.87075425  0.54996130    -0.21000
C3724       C  0.43271281  0.86241959  0.56423313     0.24700
C3725       C  0.44463507  0.85123551  0.56706917    -0.18500
C3726       C  0.45643462  0.84861142  0.55587199    -0.08500
C3727       C  0.42050707  0.86653977  0.57608923    -0.18800
C3728       C  0.41677655  0.85755532  0.58861985    -0.23600
C3729       C  0.40482104  0.86233620  0.60047838     0.26800
C3730       C  0.39713145  0.85066857  0.60928468    -0.20400
C3731       C  0.38577942  0.85473391  0.62049695    -0.10000
C3732       C  0.38191292  0.87060426  0.62318921    -0.10600
C3733       C  0.38990068  0.88230711  0.61464122    -0.03500
C3734       C  0.40127751  0.87824288  0.60348429    -0.18600
H3735       H  0.44472901  0.87512662  0.52814373     0.10500
H3736       H  0.42387064  0.87945875  0.54747130     0.10600
H3737       H  0.44522747  0.84480784  0.57803268     0.10200
H3738       H  0.46557989  0.84007956  0.55834318     0.11300
H3739       H  0.41404211  0.87737970  0.57409915     0.11400
H3740       H  0.42208449  0.84602607  0.58998850     0.13300
H3741       H  0.39977331  0.83834504  0.60733948     0.09900
H3742       H  0.37989711  0.84541594  0.62690270     0.11900
H3743       H  0.38740912  0.89465560  0.61659487     0.08600
H3744       H  0.40739041  0.88762396  0.59742692     0.11300
C3745       C  0.53897462  0.85560819  0.54407512    -0.03300
C3746       C  0.53929372  0.84474272  0.55648640    -0.05900
C3747       C  0.55105555  0.84560528  0.56792706    -0.21000
C3748       C  0.56255143  0.85744305  0.56724413     0.24700
C3749       C  0.56228386  0.86822533  0.55464340    -0.18500
C3750       C  0.55055109  0.86731789  0.54319109    -0.08500
C3751       C  0.57486180  0.85789126  0.57960213    -0.18800
C3752       C  0.58230230  0.87123598  0.58377927    -0.23600
C3753       C  0.59472349  0.87228695  0.59606209     0.26800
C3754       C  0.60266755  0.88665117  0.59771719    -0.20400
C3755       C  0.61445464  0.88845197  0.60896261    -0.10000
C3756       C  0.61862453  0.87590183  0.61892711    -0.10600
C3757       C  0.61063708  0.86152036  0.61740651    -0.03500
C3758       C  0.59878852  0.85971036  0.60612137    -0.18600
H3759       H  0.53049030  0.83555884  0.55723343     0.10500
H3760       H  0.55111393  0.83707859  0.57741288     0.10600
H3761       H  0.57125145  0.87716268  0.55337931     0.10200
H3762       H  0.55051982  0.87569330  0.53357022     0.11300
H3763       H  0.57737715  0.84692110  0.58558014     0.11400
H3764       H  0.57910667  0.88215173  0.57795367     0.13300
H3765       H  0.59979224  0.89656184  0.59021440     0.09900
H3766       H  0.62031266  0.89973737  0.60978751     0.11900
H3767       H  0.61350320  0.85165445  0.62495762     0.08600
H3768       H  0.59289483  0.84847792  0.60554111     0.11300
C3769       C  0.13495142  0.41794430  0.45922034    -0.03300
C3770       C  0.14667581  0.41351409  0.44848380    -0.05900
C3771       C  0.14408963  0.40093654  0.43812558    -0.21000
C3772       C  0.12978311  0.39262811  0.43839137     0.24700
C3773       C  0.11799413  0.39741121  0.44904028    -0.18500
C3774       C  0.12062610  0.40984841  0.45938873    -0.08500
C3775       C  0.12709952  0.37972538  0.42684188    -0.18800
C3776       C  0.11588484  0.36869442  0.42877746    -0.23600
C3777       C  0.11121849  0.35742785  0.41635240     0.26800
C3778       C  0.09536717  0.35301578  0.41548114    -0.20400
C3779       C  0.09020933  0.34265031  0.40387176    -0.10000
C3780       C  0.10087081  0.33619778  0.39299608    -0.10600
C3781       C  0.11685859  0.34039577  0.39403197    -0.03500
C3782       C  0.12199263  0.35098226  0.40557909    -0.18600
H3783       H  0.15778065  0.41974746  0.44817659     0.10500
H3784       H  0.15326640  0.39767742  0.42989896     0.10600
H3785       H  0.10653082  0.39193628  0.44924195     0.10200
H3786       H  0.11139651  0.41330527  0.46748073     0.11300
H3787       H  0.13416459  0.37971744  0.41618897     0.11400
H3788       H  0.10889178  0.36851151  0.43944585     0.13300
H3789       H  0.08686822  0.35782172  0.42368712     0.09900
H3790       H  0.07783078  0.33967847  0.40347619     0.11900
H3791       H  0.12539083  0.33557460  0.38588561     0.08600
H3792       H  0.13436323  0.35392304  0.40619028     0.11300
C3793       C  0.09970229  0.56971457  0.37465486    -0.03300
C3794       C  0.08851371  0.56055569  0.38268136    -0.05900
C3795       C  0.09304040  0.55031515  0.39468319    -0.21000
C3796       C  0.10887996  0.54878680  0.39904644     0.24700
C3797       C  0.12020955  0.55789166  0.39103635    -0.18500
C3798       C  0.11564159  0.56825475  0.37895621    -0.08500
C3799       C  0.11259812  0.53802628  0.41242406    -0.18800
C3800       C  0.12706670  0.53287601  0.41645146    -0.23600
C3801       C  0.12966918  0.52196716  0.43000540     0.26800
C3802       C  0.14268631  0.51175146  0.42991513    -0.20400
C3803       C  0.14505304  0.50101165  0.44224116    -0.10000
C3804       C  0.13452639  0.50041534  0.45497904    -0.10600
C3805       C  0.12179222  0.51091656  0.45532330    -0.03500
C3806       C  0.11943229  0.52163302  0.44305836    -0.18600
H3807       H  0.07613292  0.56134057  0.37979861     0.10500
H3808       H  0.08402452  0.54355614  0.40065276     0.10600
H3809       H  0.13251186  0.55730822  0.39419462     0.10200
H3810       H  0.12457270  0.57517925  0.37306840     0.11300
H3811       H  0.10257013  0.53363316  0.41899963     0.11400
H3812       H  0.13715016  0.53598197  0.40927146     0.13300
H3813       H  0.15085614  0.51185906  0.42012935     0.09900
H3814       H  0.15498054  0.49303077  0.44177416     0.11900
H3815       H  0.11355539  0.51068803  0.46505357     0.08600
H3816       H  0.10961481  0.52968513  0.44393688     0.11300
C3817       C  0.12797520  0.42111681  0.53889953    -0.03300
C3818       C  0.11472731  0.41162085  0.53649808    -0.05900
C3819       C  0.11002129  0.40080010  0.54794229    -0.21000
C3820       C  0.11840996  0.39916967  0.56210565     0.24700
C3821       C  0.13183712  0.40868246  0.56445408    -0.18500
C3822       C  0.13653497  0.41956085  0.55293542    -0.08500
C3823       C  0.11230427  0.38767217  0.57396837    -0.18800
C3824       C  0.11905317  0.38448613  0.58799536    -0.23600
C3825       C  0.11237952  0.37329975  0.59984580     0.26800
C3826       C  0.12202307  0.36837290  0.61232934    -0.20400
C3827       C  0.11626849  0.35830748  0.62401977    -0.10000
C3828       C  0.10062572  0.35293827  0.62361374    -0.10600
C3829       C  0.09091511  0.35785257  0.61115928    -0.03500
C3830       C  0.09667889  0.36792593  0.59943698    -0.18600
H3831       H  0.10787535  0.41277582  0.52581110     0.10500
H3832       H  0.09962708  0.39376134  0.54575603     0.10600
H3833       H  0.13869014  0.40802306  0.57512520     0.10200
H3834       H  0.14674121  0.42689413  0.55502225     0.11300
H3835       H  0.10166265  0.38145962  0.57073402     0.11400
H3836       H  0.13008760  0.39005534  0.59105543     0.13300
H3837       H  0.13410434  0.37235586  0.61307339     0.09900
H3838       H  0.12410021  0.35482561  0.63344909     0.11900
H3839       H  0.07880511  0.35396453  0.61047402     0.08600
H3840       H  0.08860978  0.37164788  0.59035419     0.11300
C3841       C  0.12662529  0.50354873  0.53531243    -0.03300
C3842       C  0.11475591  0.51435348  0.53141116    -0.05900
C3843       C  0.11029576  0.52604099  0.54206572    -0.21000
C3844       C  0.11759172  0.52719595  0.55683639     0.24700
C3845       C  0.12946342  0.51631993  0.56078379    -0.18500
C3846       C  0.13399249  0.50467039  0.55005927    -0.08500
C3847       C  0.11181496  0.53929546  0.56804578    -0.18800
C3848       C  0.12026329  0.54481206  0.58027180    -0.23600
C3849       C  0.11389201  0.55640452  0.59172566     0.26800
C3850       C  0.12433463  0.56575776  0.60046211    -0.20400
C3851       C  0.11868108  0.57633087  0.61177152    -0.10000
C3852       C  0.10243569  0.57766984  0.61462759    -0.10600
C3853       C  0.09201795  0.56833014  0.60583194    -0.03500
C3854       C  0.09765583  0.55776181  0.59461668    -0.18600
H3855       H  0.10877619  0.51357272  0.52018214     0.10500
H3856       H  0.10101032  0.53414735  0.53880036     0.10600
H3857       H  0.13499824  0.51647673  0.57223987     0.10200
H3858       H  0.14304020  0.49631732  0.55336003     0.11300
H3859       H  0.10025272  0.54419142  0.56572916     0.11400
H3860       H  0.13239281  0.54111544  0.58175588     0.13300
H3861       H  0.13690273  0.56484897  0.59855589     0.09900
H3862       H  0.12703648  0.58334546  0.61834480     0.11900
H3863       H  0.07944812  0.56891104  0.60781780     0.08600
H3864       H  0.08922575  0.55038748  0.58859185     0.11300
C3865       C  0.37844763  0.06532086  0.39124588    -0.03300
C3866       C  0.38106649  0.08151157  0.39360677    -0.05900
C3867       C  0.39279377  0.08670165  0.40391647    -0.21000
C3868       C  0.40231042  0.07587526  0.41196377     0.24700
C3869       C  0.39962290  0.05966948  0.40971380    -0.18500
C3870       C  0.38788162  0.05447426  0.39943296    -0.08500
C3871       C  0.41461232  0.08184593  0.42290277    -0.18800
C3872       C  0.42766659  0.07354487  0.42636840    -0.23600
C3873       C  0.44030751  0.07875397  0.43731464     0.26800
C3874       C  0.45422038  0.06984967  0.43774308    -0.20400
C3875       C  0.46617349  0.07344778  0.44837334    -0.10000
C3876       C  0.46452913  0.08608994  0.45882985    -0.10600
C3877       C  0.45080755  0.09527784  0.45831100    -0.03500
C3878       C  0.43874076  0.09162806  0.44768818    -0.18600
H3879       H  0.37400781  0.09022321  0.38754538     0.10500
H3880       H  0.39451520  0.09923364  0.40552319     0.10600
H3881       H  0.40632073  0.05092032  0.41609023     0.10200
H3882       H  0.38614831  0.04193041  0.39798928     0.11300
H3883       H  0.41308342  0.09362234  0.42756271     0.11400
H3884       H  0.42951175  0.06233175  0.42053577     0.13300
H3885       H  0.45575542  0.05984736  0.42998539     0.09900
H3886       H  0.47658799  0.06610086  0.44872715     0.11900
H3887       H  0.44928931  0.10498954  0.46642779     0.08600
H3888       H  0.42815573  0.09865905  0.44801583     0.11300
C3889       C  0.37975866  0.06394339  0.60684556    -0.03300
C3890       C  0.38256420  0.08013863  0.60483822    -0.05900
C3891       C  0.39484123  0.08535950  0.59524540    -0.21000
C3892       C  0.40468651  0.07453910  0.58762901     0.24700
C3893       C  0.40174101  0.05833646  0.58939924    -0.18500
C3894       C  0.38941472  0.05310631  0.59891982    -0.08500
C3895       C  0.41743442  0.08051435  0.57734176    -0.18800
C3896       C  0.43077343  0.07237401  0.57473133    -0.23600
C3897       C  0.44335965  0.07717393  0.56354930     0.26800
C3898       C  0.45604212  0.06680503  0.56131174    -0.20400
C3899       C  0.46765410  0.07005580  0.55017665    -0.10000
C3900       C  0.46685971  0.08380270  0.54109813    -0.10600
C3901       C  0.45449463  0.09443292  0.54350565    -0.03500
C3902       C  0.44283551  0.09119951  0.55464985    -0.18600
H3903       H  0.37530286  0.08881614  0.61070509     0.10500
H3904       H  0.39675893  0.09789533  0.59389205     0.10600
H3905       H  0.40872980  0.04965723  0.58323624     0.10200
H3906       H  0.38751943  0.04055789  0.60011679     0.11300
H3907       H  0.41564754  0.09198547  0.57209321     0.11400
H3908       H  0.43251355  0.06132920  0.58093324     0.13300
H3909       H  0.45679022  0.05593861  0.56795177     0.09900
H3910       H  0.47708941  0.06167364  0.54836339     0.11900
H3911       H  0.45373962  0.10508693  0.53653408     0.08600
H3912       H  0.43344290  0.09964713  0.55592273     0.11300
C3913       C  0.54443003  0.08243222  0.45592644    -0.03300
C3914       C  0.54104765  0.07054852  0.44500843    -0.05900
C3915       C  0.55173427  0.06688563  0.43309755    -0.21000
C3916       C  0.56608352  0.07497087  0.43180854     0.24700
C3917       C  0.56948172  0.08695088  0.44279181    -0.18500
C3918       C  0.55870181  0.09065177  0.45472079    -0.08500
C3919       C  0.57724372  0.06987480  0.41927970    -0.18800
C3920       C  0.59024616  0.07783630  0.41490212    -0.23600
C3921       C  0.60131233  0.07205791  0.40257479     0.26800
C3922       C  0.61140985  0.08285287  0.39519359    -0.20400
C3923       C  0.62223681  0.07784076  0.38383956    -0.10000
C3924       C  0.62326341  0.06185651  0.37963924    -0.10600
C3925       C  0.61318714  0.05103855  0.38705076    -0.03500
C3926       C  0.60242929  0.05603360  0.39844644    -0.18600
H3927       H  0.53018445  0.06394046  0.44586416     0.10500
H3928       H  0.54882368  0.05754230  0.42492884     0.10600
H3929       H  0.58050418  0.09326590  0.44252396     0.10200
H3930       H  0.56156969  0.09975770  0.46316342     0.11300
H3931       H  0.57423993  0.05912080  0.41310445     0.11400
H3932       H  0.59273890  0.08922955  0.42006379     0.13300
H3933       H  0.61090917  0.09523242  0.39820984     0.09900
H3934       H  0.62980853  0.08651286  0.37837416     0.11900
H3935       H  0.61374705  0.03862102  0.38422812     0.08600
H3936       H  0.59532490  0.04718637  0.40419527     0.11300
C3937       C  0.54714130  0.07914733  0.53802881    -0.03300
C3938       C  0.54655710  0.06487759  0.54625264    -0.05900
C3939       C  0.55841002  0.06100520  0.55691262    -0.21000
C3940       C  0.57098199  0.07136859  0.55962670     0.24700
C3941       C  0.57148550  0.08575160  0.55135117    -0.18500
C3942       C  0.55961656  0.08958491  0.54062800    -0.08500
C3943       C  0.58351837  0.06633385  0.57068986    -0.18800
C3944       C  0.59396221  0.07618503  0.57736265    -0.23600
C3945       C  0.60607877  0.07077206  0.58872361     0.26800
C3946       C  0.61215610  0.08157609  0.59960165    -0.20400
C3947       C  0.62324276  0.07683669  0.61077101    -0.10000
C3948       C  0.62860198  0.06117165  0.61121993    -0.10600
C3949       C  0.62283862  0.05045120  0.60003364    -0.03500
C3950       C  0.61176869  0.05520354  0.58885395    -0.18600
H3951       H  0.53702377  0.05666643  0.54423397     0.10500
H3952       H  0.55778802  0.04982556  0.56302337     0.10600
H3953       H  0.58114223  0.09389744  0.55275529     0.10200
H3954       H  0.56023004  0.10058974  0.53421124     0.11300
H3955       H  0.58360029  0.05399641  0.57400074     0.11400
H3956       H  0.59309228  0.08875021  0.57527742     0.13300
H3957       H  0.60812967  0.09367869  0.59961997     0.09900
H3958       H  0.62753795  0.08546149  0.61910448     0.11900
H3959       H  0.62688308  0.03836264  0.59987776     0.08600
H3960       H  0.60787393  0.04666654  0.58026304     0.11300
loop_ 
_geom_bond_atom_site_label_1 
_geom_bond_atom_site_label_2 
_geom_bond_distance 
_geom_bond_site_symmetry_2 
_ccdc_geom_bond_type 
N1            C6   1.354       .  A
N1            C5   1.352       .  A
N1           H33   1.040       .  S
N2            C9   1.350       .  A
N2           C10   1.350       .  A
N3            C8   1.354       .  A
N3            C7   1.354       .  A
N3           H34   1.039       .  S
N4           C11   1.352       .  A
N4           C12   1.351       .  A
C5           C13   1.387       .  A
C5           C21   1.412       .  A
C6           C22   1.414       .  A
C6           C14   1.387       .  A
C7           C15   1.386       .  A
C7           C24   1.413       .  A
C8           C23   1.415       .  A
C8           C16   1.388       .  A
C9           C21   1.409       .  A
C9           C17   1.386       .  A
C10          C24   1.409       .  A
C10          C18   1.386       .  A
C11          C19   1.386       .  A
C11          C22   1.412       .  A
C12          C20   1.386       .  A
C12          C23   1.412       .  A
C13          C14   1.374       .  A
C13          H25   1.082       .  S
C14          H26   1.082       .  S
C15          C16   1.372       .  A
C15          H27   1.082       .  S
C16          H28   1.082       .  S
C17          C18   1.372       .  A
C17          H29   1.082       .  S
C18          H30   1.082       .  S
C19          C20   1.373       .  A
C19          H31   1.082       .  S
C20          H32   1.082       .  S
C21        C3937   1.478       .  S
C22        C3913   1.488       .  S
C23        C3876   1.487       .  S
C24        C3900   1.482       .  S
N35          C40   1.355       .  A
N35          C39   1.354       .  A
N35          H67   1.042       .  S
N36          C43   1.352       .  A
N36          C44   1.353       .  A
N37          C42   1.354       .  A
N37          C41   1.355       .  A
N37          H68   1.041       .  S
N38          C45   1.353       .  A
N38          C46   1.351       .  A
C39          C47   1.388       .  A
C39          C55   1.417       .  A
C40          C56   1.416       .  A
C40          C48   1.387       .  A
C41          C49   1.387       .  A
C41          C58   1.416       .  A
C42          C57   1.415       .  A
C42          C50   1.387       .  A
C43          C55   1.414       .  A
C43          C51   1.386       .  A
C44          C58   1.414       .  A
C44          C52   1.385       .  A
C45          C53   1.386       .  A
C45          C56   1.413       .  A
C46          C54   1.387       .  A
C46          C57   1.413       .  A
C47          C48   1.373       .  A
C47          H59   1.082       .  S
C48          H60   1.082       .  S
C49          C50   1.375       .  A
C49          H61   1.082       .  S
C50          H62   1.082       .  S
C51          C52   1.373       .  A
C51          H63   1.082       .  S
C52          H64   1.082       .  S
C53          C54   1.372       .  A
C53          H65   1.082       .  S
C54          H66   1.082       .  S
C55        C3841   1.490       .  S
C56        C3817   1.490       .  S
C57        C3769   1.483       .  S
C58        C3804   1.493       .  S
N69          C74   1.351       .  A
N69          C73   1.353       .  A
N69         H101   1.043       .  S
N70          C77   1.351       .  A
N70          C78   1.350       .  A
N71          C76   1.352       .  A
N71          C75   1.350       .  A
N71         H102   1.043       .  S
N72          C79   1.351       .  A
N72          C80   1.352       .  A
C73          C81   1.387       .  A
C73          C89   1.415       .  A
C74          C90   1.413       .  A
C74          C82   1.387       .  A
C75          C83   1.387       .  A
C75          C92   1.412       .  A
C76          C91   1.413       .  A
C76          C84   1.387       .  A
C77          C89   1.414       .  A
C77          C85   1.387       .  A
C78          C92   1.410       .  A
C78          C86   1.385       .  A
C79          C87   1.386       .  A
C79          C90   1.412       .  A
C80          C88   1.386       .  A
C80          C91   1.413       .  A
C81          C82   1.376       .  A
C81          H93   1.082       .  S
C82          H94   1.082       .  S
C83          C84   1.376       .  A
C83          H95   1.082       .  S
C84          H96   1.082       .  S
C85          C86   1.373       .  A
C85          H97   1.082       .  S
C86          H98   1.082       .  S
C87          C88   1.373       .  A
C87          H99   1.082       .  S
C88         H100   1.082       .  S
C89        C3721   1.491       .  S
C90        C3673   1.484       .  S
C91        C3697   1.487       .  S
C92        C3745   1.481       .  S
N103        C108   1.352       .  A
N103        C107   1.355       .  A
N103        H135   1.039       .  S
N104        C111   1.351       .  A
N104        C112   1.349       .  A
N105        C110   1.353       .  A
N105        C109   1.353       .  A
N105        H136   1.038       .  S
N106        C113   1.350       .  A
N106        C114   1.352       .  A
C107        C115   1.386       .  A
C107        C123   1.415       .  A
C108        C124   1.414       .  A
C108        C116   1.388       .  A
C109        C117   1.387       .  A
C109        C126   1.413       .  A
C110        C125   1.412       .  A
C110        C118   1.386       .  A
C111        C123   1.411       .  A
C111        C119   1.386       .  A
C112        C126   1.409       .  A
C112        C120   1.386       .  A
C113        C121   1.386       .  A
C113        C124   1.411       .  A
C114        C122   1.386       .  A
C114        C125   1.412       .  A
C115        C116   1.375       .  A
C115        H127   1.082       .  S
C116        H128   1.082       .  S
C117        C118   1.376       .  A
C117        H129   1.082       .  S
C118        H130   1.082       .  S
C119        C120   1.372       .  A
C119        H131   1.082       .  S
C120        H132   1.082       .  S
C121        C122   1.374       .  A
C121        H133   1.082       .  S
C122        H134   1.082       .  S
C123       C3625   1.491       .  S
C124       C3577   1.481       .  S
C125       C3601   1.487       .  S
C126       C3649   1.482       .  S
N137        C142   1.352       .  A
N137        C141   1.353       .  A
N137        H169   1.034       .  S
N138        C145   1.349       .  A
N138        C146   1.349       .  A
N139        C144   1.350       .  A
N139        C143   1.351       .  A
N139        H170   1.050       .  S
N140        C147   1.352       .  A
N140        C148   1.351       .  A
C141        C149   1.386       .  A
C141        C157   1.411       .  A
C142        C158   1.412       .  A
C142        C150   1.386       .  A
C143        C151   1.387       .  A
C143        C160   1.412       .  A
C144        C159   1.413       .  A
C144        C152   1.388       .  A
C145        C157   1.409       .  A
C145        C153   1.386       .  A
C146        C160   1.409       .  A
C146        C154   1.387       .  A
C147        C155   1.386       .  A
C147        C158   1.414       .  A
C148        C156   1.386       .  A
C148        C159   1.413       .  A
C149        C150   1.376       .  A
C149        H161   1.082       .  S
C150        H162   1.082       .  S
C151        C152   1.376       .  A
C151        H163   1.083       .  S
C152        H164   1.083       .  S
C153        C154   1.373       .  A
C153        H165   1.082       .  S
C154        H166   1.082       .  S
C155        C156   1.375       .  A
C155        H167   1.082       .  S
C156        H168   1.082       .  S
C157       C3505   1.479       .  S
C158       C3481   1.488       .  S
C159       C3540   1.486       .  S
C160       C3553   1.484       .  S
N171        C176   1.355       .  A
N171        C175   1.353       .  A
N171        H203   1.041       .  S
N172        C179   1.351       .  A
N172        C180   1.353       .  A
N173        C178   1.353       .  A
N173        C177   1.353       .  A
N173        H204   1.043       .  S
N174        C181   1.351       .  A
N174        C182   1.350       .  A
C175        C183   1.387       .  A
C175        C191   1.415       .  A
C176        C192   1.415       .  A
C176        C184   1.387       .  A
C177        C185   1.387       .  A
C177        C194   1.415       .  A
C178        C193   1.413       .  A
C178        C186   1.387       .  A
C179        C191   1.413       .  A
C179        C187   1.386       .  A
C180        C194   1.414       .  A
C180        C188   1.386       .  A
C181        C189   1.386       .  A
C181        C192   1.412       .  A
C182        C190   1.386       .  A
C182        C193   1.409       .  A
C183        C184   1.374       .  A
C183        H195   1.082       .  S
C184        H196   1.082       .  S
C185        C186   1.374       .  A
C185        H197   1.082       .  S
C186        H198   1.082       .  S
C187        C188   1.374       .  A
C187        H199   1.082       .  S
C188        H200   1.082       .  S
C189        C190   1.372       .  A
C189        H201   1.082       .  S
C190        H202   1.082       .  S
C191       C3457   1.484       .  S
C192       C3420   1.489       .  S
C193       C3396   1.481       .  S
C194       C3433   1.490       .  S
N205        C210   1.351       .  A
N205        C209   1.352   1_655  A
N205        H237   1.039       .  S
N206        C213   1.351   1_556  A
N206        C214   1.351       .  A
N207        C212   1.352       .  A
N207        C211   1.351   1_655  A
N207        H238   1.037       .  S
N208        C215   1.350       .  A
N208        C216   1.351   1_554  A
C209        C217   1.388       .  A
C209        C225   1.414       .  A
C210        C226   1.412       .  A
C210        C218   1.386       .  A
C211        C219   1.387       .  A
C211        C228   1.413       .  A
C212        C227   1.411       .  A
C212        C220   1.386       .  A
C213        C225   1.412       .  A
C213        C221   1.386       .  A
C214        C228   1.413       .  A
C214        C222   1.387       .  A
C215        C223   1.387       .  A
C215        C226   1.412       .  A
C216        C224   1.385       .  A
C216        C227   1.410       .  A
C217        C218   1.377   1_455  A
C217        H229   1.082       .  S
C218        H230   1.082       .  S
C219        C220   1.376   1_455  A
C219        H231   1.082       .  S
C220        H232   1.082       .  S
C221        C222   1.374   1_554  A
C221        H233   1.082       .  S
C222        H234   1.082       .  S
C223        C224   1.373   1_554  A
C223        H235   1.082       .  S
C224        H236   1.082       .  S
C225       C3361   1.489       .  S
C226       C3313   1.484       .  S
C227       C3300   1.486       .  S
C228       C3337   1.487       .  S
N239        C244   1.353       .  A
N239        C243   1.352       .  A
N239        H271   1.029       .  S
N240        C247   1.352       .  A
N240        C248   1.352   1_554  A
N241        C246   1.354       .  A
N241        C245   1.354       .  A
N241        H272   1.025       .  S
N242        C249   1.352   1_556  A
N242        C250   1.351       .  A
C243        C251   1.387       .  A
C243        C259   1.413       .  A
C244        C260   1.411       .  A
C244        C252   1.386       .  A
C245        C253   1.387       .  A
C245        C262   1.415       .  A
C246        C261   1.415       .  A
C246        C254   1.387       .  A
C247        C259   1.414       .  A
C247        C255   1.387       .  A
C248        C262   1.414       .  A
C248        C256   1.386       .  A
C249        C257   1.386   1_564  A
C249        C260   1.411       .  A
C250        C258   1.387   1_565  A
C250        C261   1.413       .  A
C251        C252   1.375       .  A
C251        H263   1.082       .  S
C252        H264   1.082       .  S
C253        C254   1.376       .  A
C253        H265   1.082       .  S
C254        H266   1.082       .  S
C255        C256   1.371   1_554  A
C255        H267   1.082       .  S
C256        H268   1.082       .  S
C257        C258   1.370       .  A
C257        H269   1.082   1_556  S
C258        H270   1.082       .  S
C259       C3252   1.485       .  S
C260       C3276   1.482   1_565  S
C261       C3217   1.482       .  S
C262       C3204   1.485       .  S
N273        C278   1.353       .  A
N273        C277   1.353   1_556  A
N273        H305   1.040   1_556  S
N274        C281   1.351   1_455  A
N274        C282   1.350       .  A
N275        C280   1.354       .  A
N275        C279   1.353   1_556  A
N275        H306   1.039   1_556  S
N276        C283   1.350   1_455  A
N276        C284   1.350       .  A
C277        C285   1.387       .  A
C277        C293   1.413       .  A
C278        C294   1.414       .  A
C278        C286   1.388       .  A
C279        C287   1.387       .  A
C279        C296   1.414       .  A
C280        C295   1.415       .  A
C280        C288   1.387       .  A
C281        C293   1.410       .  A
C281        C289   1.386       .  A
C282        C296   1.411       .  A
C282        C290   1.386       .  A
C283        C291   1.386       .  A
C283        C294   1.411       .  A
C284        C292   1.386       .  A
C284        C295   1.411       .  A
C285        C286   1.375   1_554  A
C285        H297   1.082       .  S
C286        H298   1.082       .  S
C287        C288   1.375   1_554  A
C287        H299   1.082       .  S
C288        H300   1.082       .  S
C289        C290   1.372   1_655  A
C289        H301   1.082       .  S
C290        H302   1.082       .  S
C291        C292   1.373   1_655  A
C291        H303   1.082       .  S
C292        H304   1.082       .  S
C293       C3145   1.486       .  S
C294       C3097   1.486       .  S
C295       C3132   1.486       .  S
C296       C3180   1.486       .  S
N307        C312   1.352   1_554  A
N307        C311   1.354       .  A
N307        H339   1.042       .  S
N308        C315   1.352       .  A
N308        C316   1.350       .  A
N309        C314   1.354       .  A
N309        C313   1.354   1_556  A
N309        H340   1.042       .  S
N310        C317   1.351       .  A
N310        C318   1.351       .  A
C311        C319   1.386   1_565  A
C311        C327   1.414       .  A
C312        C328   1.414       .  A
C312        C320   1.388   1_565  A
C313        C321   1.388       .  A
C313        C330   1.417       .  A
C314        C329   1.415       .  A
C314        C322   1.386       .  A
C315        C327   1.412       .  A
C315        C323   1.386       .  A
C316        C330   1.412       .  A
C316        C324   1.387       .  A
C317        C325   1.386       .  A
C317        C328   1.411       .  A
C318        C326   1.386       .  A
C318        C329   1.412       .  A
C319        C320   1.374   1_554  A
C319        H331   1.082       .  S
C320        H332   1.082       .  S
C321        C322   1.374   1_554  A
C321        H333   1.082       .  S
C322        H334   1.082       .  S
C323        C324   1.373       .  A
C323        H335   1.082       .  S
C324        H336   1.082       .  S
C325        C326   1.373       .  A
C325        H337   1.082       .  S
C326        H338   1.082       .  S
C327       C3073   1.490   1_565  S
C328       C3049   1.485   1_565  S
C329       C3001   1.490       .  S
C330       C3025   1.487       .  S
N341        C346   1.352       .  A
N341        C345   1.352       .  A
N341        H373   1.038       .  S
N342        C349   1.352       .  A
N342        C350   1.352   1_655  A
N343        C348   1.354       .  A
N343        C347   1.353       .  A
N343        H374   1.037       .  S
N344        C351   1.352       .  A
N344        C352   1.351   1_655  A
C345        C353   1.387       .  A
C345        C361   1.413       .  A
C346        C362   1.414       .  A
C346        C354   1.387       .  A
C347        C355   1.387       .  A
C347        C364   1.416       .  A
C348        C363   1.415       .  A
C348        C356   1.386       .  A
C349        C361   1.414       .  A
C349        C357   1.386   1_565  A
C350        C364   1.414       .  A
C350        C358   1.386   1_565  A
C351        C359   1.386       .  A
C351        C362   1.412       .  A
C352        C360   1.386   1_455  A
C352        C363   1.413       .  A
C353        C354   1.376       .  A
C353        H365   1.082       .  S
C354        H366   1.082       .  S
C355        C356   1.376       .  A
C355        H367   1.082       .  S
C356        H368   1.082       .  S
C357        C358   1.372   1_655  A
C357        H369   1.082       .  S
C358        H370   1.082       .  S
C359        C360   1.371       .  A
C359        H371   1.082       .  S
C360        H372   1.082   1_655  S
C361       C2929   1.486   1_565  S
C362       C2905   1.486       .  S
C363       C2953   1.487       .  S
C364       C2977   1.487   1_565  S
N375        C380   1.353       .  A
N375        C379   1.351       .  A
N375        H407   1.040       .  S
N376        C383   1.350   1_655  A
N376        C384   1.350       .  A
N377        C382   1.352       .  A
N377        C381   1.354       .  A
N377        H408   1.040       .  S
N378        C385   1.350       .  A
N378        C386   1.349   1_455  A
C379        C387   1.387       .  A
C379        C395   1.412       .  A
C380        C396   1.412       .  A
C380        C388   1.387       .  A
C381        C389   1.386       .  A
C381        C398   1.413       .  A
C382        C397   1.414       .  A
C382        C390   1.388       .  A
C383        C395   1.411       .  A
C383        C391   1.387   1_565  A
C384        C398   1.409       .  A
C384        C392   1.385   1_565  A
C385        C393   1.386       .  A
C385        C396   1.410       .  A
C386        C394   1.387       .  A
C386        C397   1.410       .  A
C387        C388   1.375       .  A
C387        H399   1.082       .  S
C388        H400   1.082       .  S
C389        C390   1.376       .  A
C389        H401   1.082       .  S
C390        H402   1.082       .  S
C391        C392   1.373   1_455  A
C391        H403   1.082       .  S
C392        H404   1.082       .  S
C393        C394   1.371   1_455  A
C393        H405   1.082       .  S
C394        H406   1.082       .  S
C395       C2881   1.481   1_565  S
C396       C2833   1.485       .  S
C397       C2809   1.481       .  S
C398       C2857   1.485       .  S
C409        N410   1.368       .  A
C409        N414   1.362       .  A
C409       C2761   1.486       .  S
N410        C411   1.363       .  A
C411        N412   1.354       .  A
C411       C2785   1.482       .  S
N412        C413   1.351       .  A
C413        N414   1.357       .  A
C413       C3756   1.481       .  S
C415        N416   1.357       .  A
C415        N420   1.363       .  A
C415       C2748   1.480       .  S
N416        C417   1.355       .  A
C417        N418   1.357       .  A
C417       C3948   1.482       .  S
N418        C419   1.360       .  A
C419        N420   1.362       .  A
C419       C2796   1.482       .  S
C421        N422   1.360       .  A
C421        N426   1.367       .  A
C421       C2689   1.484       .  S
N422        C423   1.354       .  A
C423        N424   1.353       .  A
C423       C3660   1.481       .  S
N424        C425   1.356       .  A
C425        N426   1.365       .  A
C425       C2713   1.488       .  S
C427        N428   1.360       .  A
C427        N432   1.365       .  A
C427       C2676   1.480       .  S
N428        C429   1.354       .  A
C429        N430   1.354       .  A
C429       C3852   1.482       .  S
N430        C431   1.357       .  A
C431        N432   1.362       .  A
C431       C2724   1.485       .  S
C433        N434   1.363       .  A
C433        N438   1.361       .  A
C433       C2628   1.483       .  S
N434        C435   1.360       .  A
C435        N436   1.358       .  A
C435       C2641   1.480       .  S
N436        C437   1.357       .  A
C437        N438   1.358       .  A
C437       C3468   1.481       .  S
C439        N440   1.358       .  A
C439        N444   1.363       .  A
C439       C2593   1.478       .  S
N440        C441   1.355       .  A
C441        N442   1.357       .  A
C441       C3564   1.482       .  S
N442        C443   1.359       .  A
C443        N444   1.364       .  A
C443       C2652   1.487       .  S
C445        N446   1.365       .  A
C445        N450   1.363       .  A
C445       C2556   1.487       .  S
N446        C447   1.361       .  A
C447        N448   1.356       .  A
C447       C2580   1.487       .  S
N448        C449   1.355       .  A
C449        N450   1.358       .  A
C449       C3636   1.485       .  S
C451        N452   1.363       .  A
C451        N456   1.363       .  A
C451       C2521   1.485       .  S
N452        C453   1.359       .  A
C453        N454   1.357       .  A
C453       C3793   1.489       .  S
N454        C455   1.357       .  A
C455        N456   1.360       .  A
C455       C2569   1.481       .  S
C457        N458   1.361       .  A
C457        N462   1.364       .  A
C457       C2473   1.477       .  S
N458        C459   1.356       .  A
C459        N460   1.355       .  A
C459       C3708   1.483       .  S
N460        C461   1.356       .  A
C461        N462   1.360       .  A
C461       C2497   1.482       .  S
C463        N464   1.358       .  A
C463        N468   1.363       .  A
C463       C2449   1.478       .  S
N464        C465   1.356       .  A
C465        N466   1.357       .  A
C465       C3924   1.485       .  S
N466        C467   1.360       .  A
C467        N468   1.362       .  A
C467       C2508   1.487       .  S
C469        N470   1.364       .  A
C469        N474   1.364       .  A
C469       C2401   1.481       .  S
N470        C471   1.359       .  A
C471        N472   1.354       .  A
C471       C3612   1.487       .  S
N472        C473   1.356       .  A
C473        N474   1.360       .  A
C473       C2425   1.485       .  S
C475        N476   1.363       .  A
C475        N480   1.358       .  A
C475       C2388   1.479       .  S
N476        C477   1.362       .  A
C477        N478   1.362       .  A
C477       C2436   1.486       .  S
N478        C479   1.358       .  A
C479        N480   1.355       .  A
C479       C3828   1.487       .  S
C481        N482   1.365       .  A
C481        N486   1.360       .  A
C481       C2329   1.485       .  S
N482        C483   1.363       .  A
C483        N484   1.358       .  A
C483       C2364   1.480       .  S
N484        C485   1.356       .  A
C485        N486   1.357       .  A
C485       C3732   1.483       .  S
C487        N488   1.357       .  A
C487        N492   1.367       .  A
C487       C2316   1.483       .  S
N488        C489   1.351       .  A
C489        N490   1.353       .  A
C489       C3889   1.480       .  S
N490        C491   1.360       .  A
C491        N492   1.366       .  A
C491       C2353   1.490       .  S
C493        N494   1.364       .  A
C493        N498   1.362       .  A
C493       C2257   1.486       .  S
N494        C495   1.362       .  A
C495        N496   1.358       .  A
C495       C2281   1.481       .  S
N496        C497   1.355       .  A
C497        N498   1.358       .  A
C497       C3409   1.486       .  S
C499        N500   1.362       .  A
C499        N504   1.362       .  A
C499       C2244   1.485       .  S
N500        C501   1.359       .  A
C501        N502   1.357       .  A
C501       C3529   1.486       .  S
N502        C503   1.358       .  A
C503        N504   1.359       .  A
C503       C2292   1.485       .  S
C505        N506   1.364       .  A
C505        N510   1.362       .  A
C505       C2185   1.487       .  S
N506        C507   1.361       .  A
C507        N508   1.357       .  A
C507       C2209   1.487       .  S
N508        C509   1.356       .  A
C509        N510   1.359       .  A
C509       C3444   1.486       .  S
C511        N512   1.364       .  A
C511        N516   1.360       .  A
C511       C2172   1.480       .  S
N512        C513   1.361       .  A
C513        N514   1.356       .  A
C513       C2220   1.479       .  S
N514        C515   1.354       .  A
C515        N516   1.355       .  A
C515       C3516   1.481       .  S
C517        N518   1.360       .  A
C517        N522   1.365       .  A
C517       C2113   1.481       .  S
N518        C519   1.356       .  A
C519        N520   1.355       .  A
C519       C3684   1.484       .  S
N520        C521   1.358       .  A
C521        N522   1.363       .  A
C521       C2137   1.488       .  S
C523        N524   1.364       .  A
C523        N528   1.358       .  A
C523       C2089   1.485       .  S
N524        C525   1.363       .  A
C525        N526   1.361       .  A
C525       C2148   1.484       .  S
N526        C527   1.358       .  A
C527        N528   1.355       .  A
C527       C3865   1.486       .  S
C529        N530   1.364       .  A
C529        N534   1.356       .  A
C529       C2041   1.485       .  S
N530        C531   1.365       .  A
C531        N532   1.361       .  A
C531       C2065   1.489       .  S
N532        C533   1.356       .  A
C533        N534   1.353       .  A
C533       C3588   1.481       .  S
C535        N536   1.366       .  A
C535        N540   1.360       .  A
C535       C2028   1.481       .  S
N536        C537   1.363       .  A
C537        N538   1.357       .  A
C537       C2076   1.480       .  S
N538        C539   1.354       .  A
C539        N540   1.355       .  A
C539       C3780   1.482       .  S
C541        N542   1.359       .  A
C541        N546   1.357       .  A
C541       C1980   1.474       .  S
N542        C543   1.359       .  A
C543        N544   1.361       .  A
C543       C1993   1.483       .  S
N544        C545   1.358       .  A
C545        N546   1.356       .  A
C545       C3385   1.483       .  S
C547        N548   1.362       .  A
C547        N552   1.366       .  A
C547       C1945   1.488       .  S
N548        C549   1.356       .  A
C549        N550   1.353       .  A
C549       C3492   1.481       .  S
N550        C551   1.356       .  A
C551        N552   1.363       .  A
C551       C2004   1.484       .  S
C553        N554   1.363       .  A
C553        N558   1.359       .  A
C553       C1897   1.483       .  S
N554        C555   1.363       .  A
C555        N556   1.358       .  A
C555       C1921   1.485       .  S
N556        C557   1.356       .  A
C557        N558   1.355       .  A
C557       C3169   1.481       .  S
C559        N560   1.365       .  A
C559        N564   1.361       .  A
C559       C1884   1.483       .  S
N560        C561   1.362       .  A
C561        N562   1.356       .  A
C561       C1932   1.481       .  S
N562        C563   1.354       .  A
C563        N564   1.355       .  A
C563       C3372   1.479       .  S
C565        N566   1.365       .  A
C565        N570   1.368       .  A
C565       C1825   1.490       .  S
N566        C567   1.358       .  A
C567        N568   1.353       .  A
C567       C3084   1.487       .  S
N568        C569   1.355       .  A
C569        N570   1.363       .  A
C569       C1849   1.487       .  S
C571        N572   1.364       .  A
C571        N576   1.360       .  A
C571       C1801   1.483       .  S
N572        C573   1.362       .  A
C573        N574   1.359       .  A
C573       C1860   1.488       .  S
N574        C575   1.356       .  A
C575        N576   1.358       .  A
C575       C3265   1.484       .  S
C577        N578   1.360       .  A
C577        N582   1.368       .  A
C577       C1764   1.483       .  S
N578        C579   1.353       .  A
C579        N580   1.352       .  A
C579       C3060   1.482       .  S
N580        C581   1.358       .  A
C581        N582   1.366       .  A
C581       C1777   1.487       .  S
C583        N584   1.357       .  A
C583        N588   1.362       .  A
C583       C1729   1.479       .  S
N584        C585   1.354       .  A
C585        N586   1.357       .  A
C585       C3228   1.483       .  S
N586        C587   1.361       .  A
C587        N588   1.362       .  A
C587       C1788   1.487       .  S
C589        N590   1.360       .  A
C589        N594   1.366       .  A
C589       C1681   1.485       .  S
N590        C591   1.355       .  A
C591        N592   1.352       .  A
C591       C3036   1.481       .  S
N592        C593   1.357       .  A
C593        N594   1.364       .  A
C593       C1705   1.485       .  S
C595        N596   1.364       .  A
C595        N600   1.359       .  A
C595       C1668   1.483       .  S
N596        C597   1.363       .  A
C597        N598   1.358       .  A
C597       C1716   1.479       .  S
N598        C599   1.355       .  A
C599        N600   1.355       .  A
C599       C3241   1.482       .  S
C601        N602   1.360       .  A
C601        N606   1.358       .  A
C601       C1620   1.480       .  S
N602        C603   1.360       .  A
C603        N604   1.360       .  A
C603       C1644   1.482       .  S
N604        C605   1.357       .  A
C605        N606   1.355       .  A
C605       C3156   1.482       .  S
C607        N608   1.358       .  A
C607        N612   1.362       .  A
C607       C1596   1.480       .  S
N608        C609   1.354       .  A
C609        N610   1.354       .  A
C609       C3324   1.480       .  S
N610        C611   1.358       .  A
C611        N612   1.362       .  A
C611       C1633   1.478       .  S
C613        N614   1.360       .  A
C613        N618   1.362       .  A
C613       C1537   1.482       .  S
N614        C615   1.358       .  A
C615        N616   1.357       .  A
C615       C2868   1.486       .  S
N616        C617   1.360       .  A
C617        N618   1.361       .  A
C617       C1561   1.485       .  S
C619        N620   1.360       .  A
C619        N624   1.364       .  A
C619       C1513   1.480       .  S
N620        C621   1.356       .  A
C621        N622   1.355       .  A
C621       C2940   1.483       .  S
N622        C623   1.357       .  A
C623        N624   1.362       .  A
C623       C1572   1.484       .  S
C625        N626   1.358       .  A
C625        N630   1.363       .  A
C625       C1465   1.485       .  S
N626        C627   1.355       .  A
C627        N628   1.356       .  A
C627       C2844   1.482       .  S
N628        C629   1.359       .  A
C629        N630   1.363       .  A
C629       C1500   1.483       .  S
C631        N632   1.364       .  A
C631        N636   1.362       .  A
C631       C1441   1.488       .  S
N632        C633   1.361       .  A
C633        N634   1.358       .  A
C633       C1489   1.481       .  S
N634        C635   1.356       .  A
C635        N636   1.358       .  A
C635       C2964   1.486       .  S
C637        N638   1.362       .  A
C637        N642   1.358       .  A
C637       C1393   1.481       .  S
N638        C639   1.361       .  A
C639        N640   1.358       .  A
C639       C1417   1.480       .  S
N640        C641   1.356       .  A
C641        N642   1.355       .  A
C641       C3108   1.480       .  S
C643        N644   1.364       .  A
C643        N648   1.368       .  A
C643       C1369   1.488       .  S
N644        C645   1.356       .  A
C645        N646   1.351       .  A
C645       C3289   1.484       .  S
N646        C647   1.354       .  A
C647        N648   1.363       .  A
C647       C1428   1.488       .  S
C649        N650   1.358       .  A
C649        N654   1.363       .  A
C649       C1321   1.480       .  S
N650        C651   1.354       .  A
C651        N652   1.355       .  A
C651       C2820   1.478       .  S
N652        C653   1.357       .  A
C653        N654   1.361       .  A
C653       C1356   1.476       .  S
C655        N656   1.363       .  A
C655        N660   1.361       .  A
C655       C1297   1.483       .  S
N656        C657   1.361       .  A
C657        N658   1.357       .  A
C657       C1345   1.483       .  S
N658        C659   1.355       .  A
C659        N660   1.358       .  A
C659       C2916   1.483       .  S
C661        N662   1.361       .  A
C661        N666   1.362       .  A
C661       C1249   1.486       .  S
N662        C663   1.359       .  A
C663        N664   1.357       .  A
C663       C3012   1.486       .  S
N664        C665   1.358       .  A
C665        N666   1.360       .  A
C665       C1273   1.483       .  S
C667        N668   1.363       .  A
C667        N672   1.361       .  A
C667       C1225   1.483       .  S
N668        C669   1.360       .  A
C669        N670   1.357       .  A
C669       C1284   1.478       .  S
N670        C671   1.356       .  A
C671        N672   1.358       .  A
C671       C3193   1.484       .  S
O673       Mg675   2.143       .  S
O673       Mg681   2.158       .  S
O673        C708   1.236       .  S
C674        H713   1.081       .  S
C674        O687   1.237       .  S
C674        O711   1.271       .  A
Mg675       O704   2.153       .  S
Mg675       O719   2.300       .  S
Mg675       O715   2.282       .  S
Mg675       O686   2.297       .  S
O676       Mg718   2.154       .  S
O676       Mg701   2.141       .  S
O676        C697   1.235       .  S
O677        C708   1.270       .  A
O677       Mg701   2.298       .  S
C678       C2665   1.479       .  S
C678        O680   1.270       .  A
C678        O692   1.275       .  A
O679        C707   1.269       .  A
O679       Mg681   2.293       .  S
O680       Mg712   2.243       .  S
Mg681       O687   2.154       .  S
Mg681       O695   2.271       .  S
Mg681       O683   2.305       .  S
C682       C1452   1.485       .  S
C682        O720   1.273       .  A
C682        O688   1.278       .  A
O683        C690   1.276       .  A
H684        C697   1.081       .  S
C685        H710   1.081       .  S
C685        O699   1.238       .  S
C685        O700   1.271       .  A
O686        C709   1.270       .  A
O687       Mg701   2.154       .  S
O688       Mg718   2.325       .  S
C689       C2340   1.487       .  S
C689        O702   1.275       .  A
C689        O694   1.277       .  A
C690       C1260   1.484       .  S
C690        O717   1.273       .  A
Mg691       O698   2.137       .  S
Mg691       O699   2.159       .  S
Mg691       O692   2.302       .  S
Mg691       O693   2.293       .  S
Mg691       O720   2.259       .  S
O693        C697   1.269       .  A
O694       Mg701   2.310       .  S
O695        C714   1.274       .  A
O696        C716   1.274       .  A
O696       Mg712   2.294       .  S
O698       Mg712   2.148       .  S
O698        C709   1.236       .  S
O699       Mg718   2.145       .  S
O700       Mg712   2.299       .  S
Mg701       O717   2.264       .  S
O702       Mg718   2.279       .  S
H703        C708   1.081       .  S
O704       Mg712   2.128       .  S
O704        C707   1.236       .  S
H705        C707   1.081       .  S
H706        C709   1.081       .  S
O711       Mg718   2.305       .  S
C714       C2196   1.484       .  S
C714        O719   1.276       .  A
O715        C716   1.274       .  A
C716       C1212   1.480       .  S
O721       Mg723   2.139       .  S
O721       Mg729   2.152       .  S
O721        C756   1.236       .  S
C722        H761   1.081       .  S
C722        O735   1.236       .  S
C722        O759   1.271       .  A
Mg723       O752   2.148       .  S
Mg723       O767   2.293       .  S
Mg723       O763   2.249       .  S
Mg723       O734   2.296       .  S
O724       Mg766   2.146       .  S
O724       Mg749   2.146       .  S
O724        C745   1.237       .  S
O725        C756   1.270       .  A
O725       Mg749   2.298       .  S
C726       C1236   1.486       .  S
C726        O728   1.274       .  A
C726        O740   1.277       .  A
O727        C755   1.271       .  A
O727       Mg729   2.300       .  S
O728       Mg760   2.270       .  S
Mg729       O735   2.149       .  S
Mg729       O743   2.280       .  S
Mg729       O731   2.311       .  S
C730       C2617   1.486       .  S
C730        O768   1.273       .  A
C730        O736   1.276       .  A
O731        C738   1.276       .  A
H732        C745   1.081       .  S
C733        H758   1.081       .  S
C733        O747   1.236       .  S
C733        O748   1.271       .  A
O734        C757   1.270       .  A
O735       Mg749   2.148       .  S
O736       Mg766   2.309       .  S
C737       C1380   1.483       .  S
C737        O750   1.274       .  A
C737        O742   1.276       .  A
C738       C2700   1.481       .  S
C738        O765   1.273       .  A
Mg739       O746   2.149       .  S
Mg739       O747   2.155       .  S
Mg739       O740   2.313       .  S
Mg739       O741   2.305       .  S
Mg739       O768   2.274       .  S
O741        C745   1.272       .  A
O742       Mg749   2.309       .  S
O743        C762   1.273       .  A
O744        C764   1.280       .  A
O744       Mg760   2.341       .  S
O746       Mg760   2.156       .  S
O746        C757   1.236       .  S
O747       Mg766   2.154       .  S
O748       Mg760   2.304       .  S
Mg749       O765   2.265       .  S
O750       Mg766   2.282       .  S
H751        C756   1.081       .  S
O752       Mg760   2.141       .  S
O752        C755   1.237       .  S
H753        C755   1.081       .  S
H754        C757   1.081       .  S
O759       Mg766   2.303       .  S
C762       C1308   1.484       .  S
C762        O767   1.274       .  A
O763        C764   1.271       .  A
C764       C2772   1.488       .  S
O769       Mg771   2.145       .  S
O769       Mg777   2.154       .  S
O769        C804   1.236       .  S
C770        H809   1.081       .  S
C770        O783   1.235       .  S
C770        O807   1.269       .  A
Mg771       O800   2.152       .  S
Mg771       O815   2.277       .  S
Mg771       O811   2.266       .  S
Mg771       O782   2.294       .  S
O772       Mg814   2.161       .  S
O772       Mg797   2.143       .  S
O772        C793   1.235       .  S
O773        C804   1.270       .  A
O773       Mg797   2.299       .  S
C774       C2604   1.486       .  S
C774        O776   1.273       .  A
C774        O788   1.277       .  A
O775        C803   1.270       .  A
O775       Mg777   2.297       .  S
O776       Mg808   2.262       .  S
Mg777       O783   2.138       .  S
Mg777       O791   2.262       .  S
Mg777       O779   2.293       .  S
C778       C1585   1.482       .  S
C778        O816   1.273       .  A
C778        O784   1.275       .  A
O779        C786   1.275       .  A
H780        C793   1.081       .  S
C781        H806   1.081       .  S
C781        O795   1.237       .  S
C781        O796   1.271       .  A
O782        C805   1.269       .  A
O783       Mg797   2.155       .  S
O784       Mg814   2.301       .  S
C785       C2545   1.484       .  S
C785        O798   1.274       .  A
C785        O790   1.277       .  A
C786       C1332   1.484       .  S
C786        O813   1.274       .  A
Mg787       O794   2.138       .  S
Mg787       O795   2.162       .  S
Mg787       O788   2.312       .  S
Mg787       O789   2.296       .  S
Mg787       O816   2.261       .  S
O789        C793   1.270       .  A
O790       Mg797   2.307       .  S
O791        C810   1.272       .  A
O792        C812   1.277       .  A
O792       Mg808   2.318       .  S
O794       Mg808   2.149       .  S
O794        C805   1.235       .  S
O795       Mg814   2.154       .  S
O796       Mg808   2.302       .  S
Mg797       O813   2.278       .  S
O798       Mg814   2.273       .  S
H799        C804   1.081       .  S
O800       Mg808   2.137       .  S
O800        C803   1.237       .  S
H801        C803   1.081       .  S
H802        C805   1.081       .  S
O807       Mg814   2.295       .  S
C810       C2484   1.477       .  S
C810        O815   1.272       .  A
O811        C812   1.272       .  A
C812       C1657   1.483       .  S
O817       Mg819   2.140       .  S
O817       Mg825   2.159       .  S
O817        C852   1.236       .  S
C818        H857   1.081       .  S
C818        O831   1.235       .  S
C818        O855   1.269       .  A
Mg819       O848   2.154       .  S
Mg819       O863   2.315       .  S
Mg819       O859   2.266       .  S
Mg819       O830   2.298       .  S
O820       Mg862   2.154       .  S
O820       Mg845   2.137       .  S
O820        C841   1.236       .  S
O821        C852   1.270       .  A
O821       Mg845   2.295       .  S
C822       C2412   1.484       .  S
C822        O824   1.273       .  A
C822        O836   1.276       .  A
O823        C851   1.268       .  A
O823       Mg825   2.289       .  S
O824       Mg856   2.265       .  S
Mg825       O831   2.148       .  S
Mg825       O839   2.273       .  S
Mg825       O827   2.297       .  S
C826       C1524   1.484       .  S
C826        O864   1.273       .  A
C826        O832   1.275       .  A
O827        C834   1.275       .  A
H828        C841   1.081       .  S
C829        H854   1.081       .  S
C829        O843   1.237       .  S
C829        O844   1.272       .  A
O830        C853   1.270       .  A
O831       Mg845   2.157       .  S
O832       Mg862   2.302       .  S
C833       C2737   1.483       .  S
C833        O846   1.273       .  A
C833        O838   1.275       .  A
C834       C1740   1.478       .  S
C834        O861   1.271       .  A
Mg835       O842   2.146       .  S
Mg835       O843   2.155       .  S
Mg835       O836   2.307       .  S
Mg835       O837   2.298       .  S
Mg835       O864   2.267       .  S
O837        C841   1.270       .  A
O838       Mg845   2.303       .  S
O839        C858   1.274       .  A
O840        C860   1.277       .  A
O840       Mg856   2.310       .  S
O842       Mg856   2.150       .  S
O842        C853   1.236       .  S
O843       Mg862   2.153       .  S
O844       Mg856   2.303       .  S
Mg845       O861   2.248       .  S
O846       Mg862   2.280       .  S
H847        C852   1.081       .  S
O848       Mg856   2.133       .  S
O848        C851   1.235       .  S
H849        C851   1.081       .  S
H850        C853   1.081       .  S
O855       Mg862   2.299       .  S
C858       C2268   1.487       .  S
C858        O863   1.278       .  A
O859        C860   1.274       .  A
C860       C1404   1.482       .  S
C865        N866   1.363       .  A
C865        N870   1.358       .  A
C865       C1153   1.483       .  S
N866        C867   1.363       .  A
C867        N868   1.360       .  A
C867       C1177   1.485       .  S
N868        C869   1.356       .  A
C869        N870   1.354       .  A
C869       C3121   1.484       .  S
C871        N872   1.361       .  A
C871        N876   1.363       .  A
C871       C1201   1.483       .  S
N872        C873   1.358       .  A
C873        N874   1.354       .  A
C873       C3348   1.481       .  S
N874        C875   1.356       .  A
C875        N876   1.360       .  A
C875       C1188   1.481       .  S
O877       Mg879   2.147       .  S
O877       Mg885   2.146       .  S
O877        C912   1.236       .  S
C878        H917   1.081       .  S
C878        O891   1.236       .  S
C878        O915   1.270       .  A
Mg879       O908   2.154       .  S
Mg879       O923   2.298       .  S
Mg879       O919   2.256       .  S
Mg879       O890   2.289       .  S
O880       Mg922   2.157       .  S
O880       Mg905   2.137       .  S
O880        C901   1.237       .  S
O881        C912   1.270       .  A
O881       Mg905   2.303       .  S
C882       C2305   1.485       .  S
C882        O884   1.275       .  A
C882        O896   1.276       .  A
O883        C911   1.271       .  A
O883       Mg885   2.304       .  S
O884       Mg916   2.276       .  S
Mg885       O891   2.135       .  S
Mg885       O899   2.243       .  S
Mg885       O887   2.299       .  S
C886       C1129   1.480       .  S
C886        O924   1.272       .  A
C886        O892   1.275       .  A
O887        C894   1.274       .  A
H888        C901   1.081       .  S
C889        H914   1.081       .  S
C889        O903   1.236       .  S
C889        O904   1.270       .  A
O890        C913   1.268       .  A
O891       Mg905   2.150       .  S
O892       Mg922   2.298       .  S
C893       C2377   1.482       .  S
C893        O906   1.273       .  A
C893        O898   1.275       .  A
C894       C1164   1.479       .  S
C894        O921   1.272       .  A
Mg895       O902   2.132       .  S
Mg895       O903   2.157       .  S
Mg895       O896   2.302       .  S
Mg895       O897   2.294       .  S
Mg895       O924   2.258       .  S
O897        C901   1.270       .  A
O898       Mg905   2.292       .  S
O899        C918   1.269       .  A
O900        C920   1.277       .  A
O900       Mg916   2.318       .  S
O902       Mg916   2.152       .  S
O902        C913   1.235       .  S
O903       Mg922   2.144       .  S
O904       Mg916   2.296       .  S
Mg905       O921   2.273       .  S
O906       Mg922   2.273       .  S
H907        C912   1.081       .  S
O908       Mg916   2.150       .  S
O908        C911   1.237       .  S
H909        C911   1.081       .  S
H910        C913   1.081       .  S
O915       Mg922   2.299       .  S
C918       C1969   1.477       .  S
C918        O923   1.274       .  A
O919        C920   1.273       .  A
C920       C1753   1.485       .  S
O925       Mg927   2.141       .  S
O925       Mg933   2.159       .  S
O925        C960   1.236       .  S
C926        H965   1.081       .  S
C926        O939   1.236       .  S
C926        O963   1.271       .  A
Mg927       O956   2.153       .  S
Mg927       O971   2.282       .  S
Mg927       O967   2.266       .  S
Mg927       O938   2.293       .  S
O928       Mg970   2.148       .  S
O928       Mg953   2.158       .  S
O928        C949   1.237       .  S
O929        C960   1.270       .  A
O929       Mg953   2.299       .  S
C930       C1873   1.482       .  S
C930        O932   1.272       .  A
C930        O944   1.276       .  A
O931        C959   1.269       .  A
O931       Mg933   2.292       .  S
O932       Mg964   2.260       .  S
Mg933       O939   2.158       .  S
Mg933       O947   2.294       .  S
Mg933       O935   2.306       .  S
C934       C2532   1.480       .  S
C934        O972   1.271       .  A
C934        O940   1.276       .  A
O935        C942   1.276       .  A
H936        C949   1.081       .  S
C937        H962   1.081       .  S
C937        O951   1.236       .  S
C937        O952   1.270       .  A
O938        C961   1.270       .  A
O939       Mg953   2.156       .  S
O940       Mg970   2.311       .  S
C941       C1476   1.484       .  S
C941        O954   1.271       .  A
C941        O946   1.277       .  A
C942       C2124   1.484       .  S
C942        O969   1.274       .  A
Mg943       O950   2.135       .  S
Mg943       O951   2.146       .  S
Mg943       O944   2.315       .  S
Mg943       O945   2.310       .  S
Mg943       O972   2.257       .  S
O945        C949   1.272       .  A
O946       Mg953   2.324       .  S
O947        C966   1.276       .  A
O948        C968   1.274       .  A
O948       Mg964   2.295       .  S
O950       Mg964   2.152       .  S
O950        C961   1.236       .  S
O951       Mg970   2.142       .  S
O952       Mg964   2.298       .  S
Mg953       O969   2.273       .  S
O954       Mg970   2.258       .  S
H955        C960   1.081       .  S
O956       Mg964   2.137       .  S
O956        C959   1.235       .  S
H957        C959   1.081       .  S
H958        C961   1.081       .  S
O963       Mg970   2.305       .  S
C966       C1692   1.486       .  S
C966        O971   1.273       .  A
O967        C968   1.272       .  A
C968       C2161   1.482       .  S
O973       Mg975   2.150       .  S
O973       Mg981   2.148       .  S
O973       C1008   1.236       .  S
C974       H1013   1.081       .  S
C974        O987   1.236       .  S
C974       O1011   1.269       .  A
Mg975      O1004   2.159       .  S
Mg975      O1019   2.308       .  S
Mg975      O1015   2.254       .  S
Mg975       O986   2.293       .  S
O976      Mg1018   2.161       .  S
O976      Mg1001   2.137       .  S
O976        C997   1.236       .  S
O977       C1008   1.271       .  A
O977      Mg1001   2.303       .  S
C978       C2052   1.487       .  S
C978        O980   1.276       .  A
C978        O992   1.276       .  A
O979       C1007   1.272       .  A
O979       Mg981   2.308       .  S
O980      Mg1012   2.291       .  S
Mg981       O987   2.132       .  S
Mg981       O995   2.253       .  S
Mg981       O983   2.317       .  S
C982       C1609   1.478       .  S
C982       O1020   1.272       .  A
C982        O988   1.274       .  A
O983        C990   1.277       .  A
H984        C997   1.081       .  S
C985       H1010   1.081       .  S
C985        O999   1.235       .  S
C985       O1000   1.269       .  A
O986       C1009   1.269       .  A
O987      Mg1001   2.150       .  S
O988      Mg1018   2.291       .  S
C989       C2233   1.485       .  S
C989       O1002   1.274       .  A
C989        O994   1.275       .  A
C990       C1812   1.486       .  S
C990       O1017   1.273       .  A
Mg991       O998   2.135       .  S
Mg991       O999   2.160       .  S
Mg991       O992   2.300       .  S
Mg991       O993   2.290       .  S
Mg991      O1020   2.259       .  S
O993        C997   1.269       .  A
O994      Mg1001   2.297       .  S
O995       C1014   1.271       .  A
O996       C1016   1.277       .  A
O996      Mg1012   2.312       .  S
O998      Mg1012   2.157       .  S
O998       C1009   1.235       .  S
O999      Mg1018   2.144       .  S
O1000     Mg1012   2.292       .  S
Mg1001     O1017   2.273       .  S
O1002     Mg1018   2.277       .  S
H1003      C1008   1.081       .  S
O1004     Mg1012   2.158       .  S
O1004      C1007   1.237       .  S
H1005      C1007   1.081       .  S
H1006      C1009   1.081       .  S
O1011     Mg1018   2.293       .  S
C1014      C2460   1.481       .  S
C1014      O1019   1.275       .  A
O1015      C1016   1.272       .  A
C1016      C1548   1.483       .  S
C1021      N1022   1.361       .  A
C1021      N1026   1.360       .  A
C1021      C1081   1.483       .  S
N1022      C1023   1.359       .  A
C1023      N1024   1.356       .  A
C1023      C1105   1.471       .  S
N1024      C1025   1.356       .  A
C1025      N1026   1.357       .  A
C1025      C2892   1.481       .  S
C1027      N1028   1.360       .  A
C1027      N1032   1.361       .  A
C1027      C1140   1.482       .  S
N1028      C1029   1.357       .  A
C1029      N1030   1.357       .  A
C1029      C1116   1.473       .  S
N1030      C1031   1.358       .  A
C1031      N1032   1.359       .  A
C1031      C2988   1.485       .  S
O1033     Mg1035   2.148       .  S
O1033     Mg1041   2.151       .  S
O1033      C1068   1.236       .  S
C1034      H1073   1.081       .  S
C1034      O1047   1.236       .  S
C1034      O1071   1.270       .  A
Mg1035     O1064   2.155       .  S
Mg1035     O1079   2.303       .  S
Mg1035     O1075   2.270       .  S
Mg1035     O1046   2.292       .  S
O1036     Mg1078   2.161       .  S
O1036     Mg1061   2.146       .  S
O1036      C1057   1.237       .  S
O1037      C1068   1.271       .  A
O1037     Mg1061   2.304       .  S
C1038      C2100   1.485       .  S
C1038      O1040   1.272       .  A
C1038      O1052   1.278       .  A
O1039      C1067   1.270       .  A
O1039     Mg1041   2.295       .  S
O1040     Mg1072   2.257       .  S
Mg1041     O1047   2.150       .  S
Mg1041     O1055   2.273       .  S
Mg1041     O1043   2.309       .  S
C1042      C1836   1.484       .  S
C1042      O1080   1.273       .  A
C1042      O1048   1.277       .  A
O1043      C1050   1.276       .  A
H1044      C1057   1.081       .  S
C1045      H1070   1.081       .  S
C1045      O1059   1.236       .  S
C1045      O1060   1.270       .  A
O1046      C1069   1.269       .  A
O1047     Mg1061   2.153       .  S
O1048     Mg1078   2.315       .  S
C1049      C1956   1.489       .  S
C1049      O1062   1.274       .  A
C1049      O1054   1.277       .  A
C1050      C1908   1.482       .  S
C1050      O1077   1.273       .  A
Mg1051     O1058   2.137       .  S
Mg1051     O1059   2.159       .  S
Mg1051     O1052   2.321       .  S
Mg1051     O1053   2.298       .  S
Mg1051     O1080   2.262       .  S
O1053      C1057   1.271       .  A
O1054     Mg1061   2.316       .  S
O1055      C1074   1.274       .  A
O1056      C1076   1.276       .  A
O1056     Mg1072   2.303       .  S
O1058     Mg1072   2.153       .  S
O1058      C1069   1.236       .  S
O1059     Mg1078   2.149       .  S
O1060     Mg1072   2.295       .  S
Mg1061     O1077   2.269       .  S
O1062     Mg1078   2.277       .  S
H1063      C1068   1.081       .  S
O1064     Mg1072   2.133       .  S
O1064      C1067   1.236       .  S
H1065      C1067   1.081       .  S
H1066      C1069   1.081       .  S
O1071     Mg1078   2.301       .  S
C1074      C2017   1.483       .  S
C1074      O1079   1.275       .  A
O1075      C1076   1.274       .  A
C1076      C1092   1.483       .  S
C1081      C1082   1.406       .  A
C1081      C1086   1.406       .  A
C1082      C1083   1.400       .  A
C1082      H1095   1.083       .  S
C1083      C1084   1.405       .  A
C1083      H1096   1.083       .  S
C1084      C1085   1.407       .  A
C1084      C1087   1.488       .  S
C1085      C1086   1.396       .  A
C1085      H1097   1.081       .  S
C1086      H1098   1.083       .  S
C1087      C1088   1.349       .  D
C1087      H1099   1.085       .  S
C1088      C1089   1.486       .  S
C1088      H1100   1.085       .  S
C1089      C1090   1.404       .  A
C1089      C1094   1.407       .  A
C1090      C1091   1.398       .  A
C1090      H1101   1.083       .  S
C1091      C1092   1.405       .  A
C1091      H1102   1.083       .  S
C1092      C1093   1.407       .  A
C1093      C1094   1.398       .  A
C1093      H1103   1.083       .  S
C1094      H1104   1.082       .  S
C1105      C1106   1.404       .  A
C1105      C1110   1.403       .  A
C1106      C1107   1.400       .  A
C1106      H1119   1.083       .  S
C1107      C1108   1.402       .  A
C1107      H1120   1.083       .  S
C1108      C1109   1.405       .  A
C1108      C1111   1.477       .  S
C1109      C1110   1.395       .  A
C1109      H1121   1.083       .  S
C1110      H1122   1.083       .  S
C1111      C1112   1.343       .  D
C1111      H1123   1.087       .  S
C1112      C1113   1.478       .  S
C1112      H1124   1.087       .  S
C1113      C1114   1.403       .  A
C1113      C1118   1.405       .  A
C1114      C1115   1.399       .  A
C1114      H1125   1.083       .  S
C1115      C1116   1.404       .  A
C1115      H1126   1.083       .  S
C1116      C1117   1.403       .  A
C1117      C1118   1.395       .  A
C1117      H1127   1.083       .  S
C1118      H1128   1.083       .  S
C1129      C1130   1.406       .  A
C1129      C1134   1.406       .  A
C1130      C1131   1.397       .  A
C1130      H1143   1.083       .  S
C1131      C1132   1.402       .  A
C1131      H1144   1.083       .  S
C1132      C1133   1.406       .  A
C1132      C1135   1.481       .  S
C1133      C1134   1.397       .  A
C1133      H1145   1.082       .  S
C1134      H1146   1.083       .  S
C1135      C1136   1.346       .  D
C1135      H1147   1.086       .  S
C1136      C1137   1.483       .  S
C1136      H1148   1.086       .  S
C1137      C1138   1.403       .  A
C1137      C1142   1.406       .  A
C1138      C1139   1.398       .  A
C1138      H1149   1.083       .  S
C1139      C1140   1.407       .  A
C1139      H1150   1.083       .  S
C1140      C1141   1.406       .  A
C1141      C1142   1.396       .  A
C1141      H1151   1.083       .  S
C1142      H1152   1.082       .  S
C1153      C1154   1.406       .  A
C1153      C1158   1.407       .  A
C1154      C1155   1.402       .  A
C1154      H1167   1.083       .  S
C1155      C1156   1.405       .  A
C1155      H1168   1.083       .  S
C1156      C1157   1.404       .  A
C1156      C1159   1.485       .  S
C1157      C1158   1.394       .  A
C1157      H1169   1.082       .  S
C1158      H1170   1.083       .  S
C1159      C1160   1.348       .  D
C1159      H1171   1.086       .  S
C1160      C1161   1.484       .  S
C1160      H1172   1.086       .  S
C1161      C1162   1.403       .  A
C1161      C1166   1.407       .  A
C1162      C1163   1.398       .  A
C1162      H1173   1.083       .  S
C1163      C1164   1.405       .  A
C1163      H1174   1.083       .  S
C1164      C1165   1.405       .  A
C1165      C1166   1.399       .  A
C1165      H1175   1.083       .  S
C1166      H1176   1.082       .  S
C1177      C1178   1.408       .  A
C1177      C1182   1.405       .  A
C1178      C1179   1.405       .  A
C1178      H1191   1.083       .  S
C1179      C1180   1.405       .  A
C1179      H1192   1.083       .  S
C1180      C1181   1.406       .  A
C1180      C1183   1.488       .  S
C1181      C1182   1.392       .  A
C1181      H1193   1.082       .  S
C1182      H1194   1.083       .  S
C1183      C1184   1.348       .  D
C1183      H1195   1.085       .  S
C1184      C1185   1.484       .  S
C1184      H1196   1.086       .  S
C1185      C1186   1.402       .  A
C1185      C1190   1.409       .  A
C1186      C1187   1.391       .  A
C1186      H1197   1.084       .  S
C1187      C1188   1.404       .  A
C1187      H1198   1.083       .  S
C1188      C1189   1.407       .  A
C1189      C1190   1.404       .  A
C1189      H1199   1.083       .  S
C1190      H1200   1.081       .  S
C1201      C1202   1.406       .  A
C1201      C1206   1.406       .  A
C1202      C1203   1.399       .  A
C1202      H1215   1.083       .  S
C1203      C1204   1.404       .  A
C1203      H1216   1.083       .  S
C1204      C1205   1.408       .  A
C1204      C1207   1.488       .  S
C1205      C1206   1.398       .  A
C1205      H1217   1.082       .  S
C1206      H1218   1.083       .  S
C1207      C1208   1.347       .  D
C1207      H1219   1.086       .  S
C1208      C1209   1.486       .  S
C1208      H1220   1.085       .  S
C1209      C1210   1.402       .  A
C1209      C1214   1.409       .  A
C1210      C1211   1.396       .  A
C1210      H1221   1.083       .  S
C1211      C1212   1.405       .  A
C1211      H1222   1.083       .  S
C1212      C1213   1.405       .  A
C1213      C1214   1.401       .  A
C1213      H1223   1.083       .  S
C1214      H1224   1.082       .  S
C1225      C1226   1.406       .  A
C1225      C1230   1.406       .  A
C1226      C1227   1.398       .  A
C1226      H1239   1.083       .  S
C1227      C1228   1.403       .  A
C1227      H1240   1.083       .  S
C1228      C1229   1.407       .  A
C1228      C1231   1.486       .  S
C1229      C1230   1.400       .  A
C1229      H1241   1.082       .  S
C1230      H1242   1.083       .  S
C1231      C1232   1.348       .  D
C1231      H1243   1.086       .  S
C1232      C1233   1.488       .  S
C1232      H1244   1.086       .  S
C1233      C1234   1.403       .  A
C1233      C1238   1.407       .  A
C1234      C1235   1.399       .  A
C1234      H1245   1.083       .  S
C1235      C1236   1.407       .  A
C1235      H1246   1.083       .  S
C1236      C1237   1.407       .  A
C1237      C1238   1.400       .  A
C1237      H1247   1.083       .  S
C1238      H1248   1.082       .  S
C1249      C1250   1.407       .  A
C1249      C1254   1.408       .  A
C1250      C1251   1.397       .  A
C1250      H1263   1.083       .  S
C1251      C1252   1.401       .  A
C1251      H1264   1.083       .  S
C1252      C1253   1.406       .  A
C1252      C1255   1.484       .  S
C1253      C1254   1.400       .  A
C1253      H1265   1.083       .  S
C1254      H1266   1.083       .  S
C1255      C1256   1.346       .  D
C1255      H1267   1.085       .  S
C1256      C1257   1.487       .  S
C1256      H1268   1.086       .  S
C1257      C1258   1.403       .  A
C1257      C1262   1.407       .  A
C1258      C1259   1.399       .  A
C1258      H1269   1.083       .  S
C1259      C1260   1.406       .  A
C1259      H1270   1.083       .  S
C1260      C1261   1.406       .  A
C1261      C1262   1.398       .  A
C1261      H1271   1.083       .  S
C1262      H1272   1.082       .  S
C1273      C1274   1.407       .  A
C1273      C1278   1.405       .  A
C1274      C1275   1.402       .  A
C1274      H1287   1.083       .  S
C1275      C1276   1.403       .  A
C1275      H1288   1.083       .  S
C1276      C1277   1.406       .  A
C1276      C1279   1.486       .  S
C1277      C1278   1.395       .  A
C1277      H1289   1.082       .  S
C1278      H1290   1.083       .  S
C1279      C1280   1.347       .  D
C1279      H1291   1.084       .  S
C1280      C1281   1.487       .  S
C1280      H1292   1.087       .  S
C1281      C1282   1.403       .  A
C1281      C1286   1.410       .  A
C1282      C1283   1.393       .  A
C1282      H1293   1.084       .  S
C1283      C1284   1.402       .  A
C1283      H1294   1.083       .  S
C1284      C1285   1.405       .  A
C1285      C1286   1.404       .  A
C1285      H1295   1.083       .  S
C1286      H1296   1.081       .  S
C1297      C1298   1.406       .  A
C1297      C1302   1.406       .  A
C1298      C1299   1.401       .  A
C1298      H1311   1.083       .  S
C1299      C1300   1.404       .  A
C1299      H1312   1.083       .  S
C1300      C1301   1.405       .  A
C1300      C1303   1.485       .  S
C1301      C1302   1.397       .  A
C1301      H1313   1.083       .  S
C1302      H1314   1.083       .  S
C1303      C1304   1.346       .  D
C1303      H1315   1.087       .  S
C1304      C1305   1.482       .  S
C1304      H1316   1.086       .  S
C1305      C1306   1.401       .  A
C1305      C1310   1.406       .  A
C1306      C1307   1.398       .  A
C1306      H1317   1.083       .  S
C1307      C1308   1.408       .  A
C1307      H1318   1.083       .  S
C1308      C1309   1.406       .  A
C1309      C1310   1.400       .  A
C1309      H1319   1.083       .  S
C1310      H1320   1.083       .  S
C1321      C1322   1.407       .  A
C1321      C1326   1.405       .  A
C1322      C1323   1.395       .  A
C1322      H1335   1.083       .  S
C1323      C1324   1.400       .  A
C1323      H1336   1.083       .  S
C1324      C1325   1.408       .  A
C1324      C1327   1.483       .  S
C1325      C1326   1.400       .  A
C1325      H1337   1.082       .  S
C1326      H1338   1.083       .  S
C1327      C1328   1.344       .  D
C1327      H1339   1.085       .  S
C1328      C1329   1.485       .  S
C1328      H1340   1.086       .  S
C1329      C1330   1.401       .  A
C1329      C1334   1.409       .  A
C1330      C1331   1.395       .  A
C1330      H1341   1.084       .  S
C1331      C1332   1.407       .  A
C1331      H1342   1.083       .  S
C1332      C1333   1.406       .  A
C1333      C1334   1.401       .  A
C1333      H1343   1.083       .  S
C1334      H1344   1.081       .  S
C1345      C1346   1.407       .  A
C1345      C1350   1.406       .  A
C1346      C1347   1.403       .  A
C1346      H1359   1.083       .  S
C1347      C1348   1.404       .  A
C1347      H1360   1.083       .  S
C1348      C1349   1.406       .  A
C1348      C1351   1.485       .  S
C1349      C1350   1.393       .  A
C1349      H1361   1.082       .  S
C1350      H1362   1.083       .  S
C1351      C1352   1.346       .  D
C1351      H1363   1.085       .  S
C1352      C1353   1.482       .  S
C1352      H1364   1.086       .  S
C1353      C1354   1.401       .  A
C1353      C1358   1.408       .  A
C1354      C1355   1.393       .  A
C1354      H1365   1.084       .  S
C1355      C1356   1.403       .  A
C1355      H1366   1.083       .  S
C1356      C1357   1.405       .  A
C1357      C1358   1.403       .  A
C1357      H1367   1.083       .  S
C1358      H1368   1.082       .  S
C1369      C1370   1.407       .  A
C1369      C1374   1.408       .  A
C1370      C1371   1.403       .  A
C1370      H1383   1.083       .  S
C1371      C1372   1.405       .  A
C1371      H1384   1.083       .  S
C1372      C1373   1.405       .  A
C1372      C1375   1.488       .  S
C1373      C1374   1.396       .  A
C1373      H1385   1.082       .  S
C1374      H1386   1.083       .  S
C1375      C1376   1.348       .  D
C1375      H1387   1.086       .  S
C1376      C1377   1.486       .  S
C1376      H1388   1.086       .  S
C1377      C1378   1.403       .  A
C1377      C1382   1.407       .  A
C1378      C1379   1.399       .  A
C1378      H1389   1.083       .  S
C1379      C1380   1.406       .  A
C1379      H1390   1.083       .  S
C1380      C1381   1.406       .  A
C1381      C1382   1.401       .  A
C1381      H1391   1.083       .  S
C1382      H1392   1.082       .  S
C1393      C1394   1.405       .  A
C1393      C1398   1.407       .  A
C1394      C1395   1.399       .  A
C1394      H1407   1.083       .  S
C1395      C1396   1.404       .  A
C1395      H1408   1.083       .  S
C1396      C1397   1.405       .  A
C1396      C1399   1.483       .  S
C1397      C1398   1.395       .  A
C1397      H1409   1.082       .  S
C1398      H1410   1.083       .  S
C1399      C1400   1.347       .  D
C1399      H1411   1.086       .  S
C1400      C1401   1.481       .  S
C1400      H1412   1.085       .  S
C1401      C1402   1.402       .  A
C1401      C1406   1.406       .  A
C1402      C1403   1.398       .  A
C1402      H1413   1.083       .  S
C1403      C1404   1.407       .  A
C1403      H1414   1.083       .  S
C1404      C1405   1.406       .  A
C1405      C1406   1.397       .  A
C1405      H1415   1.083       .  S
C1406      H1416   1.083       .  S
C1417      C1418   1.406       .  A
C1417      C1422   1.404       .  A
C1418      C1419   1.403       .  A
C1418      H1431   1.083       .  S
C1419      C1420   1.405       .  A
C1419      H1432   1.083       .  S
C1420      C1421   1.408       .  A
C1420      C1423   1.490       .  S
C1421      C1422   1.394       .  A
C1421      H1433   1.082       .  S
C1422      H1434   1.083       .  S
C1423      C1424   1.347       .  D
C1423      H1435   1.084       .  S
C1424      C1425   1.486       .  S
C1424      H1436   1.086       .  S
C1425      C1426   1.399       .  A
C1425      C1430   1.411       .  A
C1426      C1427   1.389       .  A
C1426      H1437   1.084       .  S
C1427      C1428   1.407       .  A
C1427      H1438   1.083       .  S
C1428      C1429   1.408       .  A
C1429      C1430   1.409       .  A
C1429      H1439   1.083       .  S
C1430      H1440   1.081       .  S
C1441      C1442   1.406       .  A
C1441      C1446   1.407       .  A
C1442      C1443   1.401       .  A
C1442      H1455   1.083       .  S
C1443      C1444   1.405       .  A
C1443      H1456   1.083       .  S
C1444      C1445   1.407       .  A
C1444      C1447   1.491       .  S
C1445      C1446   1.398       .  A
C1445      H1457   1.081       .  S
C1446      H1458   1.083       .  S
C1447      C1448   1.349       .  D
C1447      H1459   1.086       .  S
C1448      C1449   1.488       .  S
C1448      H1460   1.085       .  S
C1449      C1450   1.403       .  A
C1449      C1454   1.408       .  A
C1450      C1451   1.398       .  A
C1450      H1461   1.083       .  S
C1451      C1452   1.406       .  A
C1451      H1462   1.083       .  S
C1452      C1453   1.407       .  A
C1453      C1454   1.402       .  A
C1453      H1463   1.083       .  S
C1454      H1464   1.082       .  S
C1465      C1466   1.407       .  A
C1465      C1470   1.407       .  A
C1466      C1467   1.395       .  A
C1466      H1479   1.083       .  S
C1467      C1468   1.401       .  A
C1467      H1480   1.084       .  S
C1468      C1469   1.409       .  A
C1468      C1471   1.486       .  S
C1469      C1470   1.403       .  A
C1469      H1481   1.082       .  S
C1470      H1482   1.083       .  S
C1471      C1472   1.346       .  D
C1471      H1483   1.086       .  S
C1472      C1473   1.488       .  S
C1472      H1484   1.086       .  S
C1473      C1474   1.402       .  A
C1473      C1478   1.409       .  A
C1474      C1475   1.399       .  A
C1474      H1485   1.083       .  S
C1475      C1476   1.407       .  A
C1475      H1486   1.083       .  S
C1476      C1477   1.405       .  A
C1477      C1478   1.401       .  A
C1477      H1487   1.083       .  S
C1478      H1488   1.082       .  S
C1489      C1490   1.404       .  A
C1489      C1494   1.406       .  A
C1490      C1491   1.394       .  A
C1490      H1503   1.083       .  S
C1491      C1492   1.402       .  A
C1491      H1504   1.084       .  S
C1492      C1493   1.410       .  A
C1492      C1495   1.487       .  S
C1493      C1494   1.404       .  A
C1493      H1505   1.081       .  S
C1494      H1506   1.083       .  S
C1495      C1496   1.348       .  D
C1495      H1507   1.086       .  S
C1496      C1497   1.487       .  S
C1496      H1508   1.084       .  S
C1497      C1498   1.404       .  A
C1497      C1502   1.406       .  A
C1498      C1499   1.403       .  A
C1498      H1509   1.083       .  S
C1499      C1500   1.406       .  A
C1499      H1510   1.083       .  S
C1500      C1501   1.405       .  A
C1501      C1502   1.394       .  A
C1501      H1511   1.083       .  S
C1502      H1512   1.082       .  S
C1513      C1514   1.406       .  A
C1513      C1518   1.405       .  A
C1514      C1515   1.397       .  A
C1514      H1527   1.083       .  S
C1515      C1516   1.401       .  A
C1515      H1528   1.083       .  S
C1516      C1517   1.407       .  A
C1516      C1519   1.483       .  S
C1517      C1518   1.400       .  A
C1517      H1529   1.083       .  S
C1518      H1530   1.083       .  S
C1519      C1520   1.345       .  D
C1519      H1531   1.086       .  S
C1520      C1521   1.484       .  S
C1520      H1532   1.087       .  S
C1521      C1522   1.402       .  A
C1521      C1526   1.407       .  A
C1522      C1523   1.397       .  A
C1522      H1533   1.083       .  S
C1523      C1524   1.406       .  A
C1523      H1534   1.083       .  S
C1524      C1525   1.408       .  A
C1525      C1526   1.400       .  A
C1525      H1535   1.083       .  S
C1526      H1536   1.082       .  S
C1537      C1538   1.406       .  A
C1537      C1542   1.406       .  A
C1538      C1539   1.396       .  A
C1538      H1551   1.083       .  S
C1539      C1540   1.402       .  A
C1539      H1552   1.083       .  S
C1540      C1541   1.409       .  A
C1540      C1543   1.486       .  S
C1541      C1542   1.400       .  A
C1541      H1553   1.082       .  S
C1542      H1554   1.083       .  S
C1543      C1544   1.348       .  D
C1543      H1555   1.083       .  S
C1544      C1545   1.491       .  S
C1544      H1556   1.085       .  S
C1545      C1546   1.405       .  A
C1545      C1550   1.409       .  A
C1546      C1547   1.398       .  A
C1546      H1557   1.083       .  S
C1547      C1548   1.405       .  A
C1547      H1558   1.083       .  S
C1548      C1549   1.406       .  A
C1549      C1550   1.398       .  A
C1549      H1559   1.083       .  S
C1550      H1560   1.079       .  S
C1561      C1562   1.408       .  A
C1561      C1566   1.405       .  A
C1562      C1563   1.404       .  A
C1562      H1575   1.083       .  S
C1563      C1564   1.405       .  A
C1563      H1576   1.083       .  S
C1564      C1565   1.407       .  A
C1564      C1567   1.489       .  S
C1565      C1566   1.394       .  A
C1565      H1577   1.082       .  S
C1566      H1578   1.083       .  S
C1567      C1568   1.348       .  D
C1567      H1579   1.084       .  S
C1568      C1569   1.488       .  S
C1568      H1580   1.086       .  S
C1569      C1570   1.402       .  A
C1569      C1574   1.410       .  A
C1570      C1571   1.393       .  A
C1570      H1581   1.084       .  S
C1571      C1572   1.405       .  A
C1571      H1582   1.083       .  S
C1572      C1573   1.407       .  A
C1573      C1574   1.405       .  A
C1573      H1583   1.083       .  S
C1574      H1584   1.081       .  S
C1585      C1586   1.407       .  A
C1585      C1590   1.406       .  A
C1586      C1587   1.398       .  A
C1586      H1599   1.083       .  S
C1587      C1588   1.402       .  A
C1587      H1600   1.083       .  S
C1588      C1589   1.408       .  A
C1588      C1591   1.485       .  S
C1589      C1590   1.397       .  A
C1589      H1601   1.082       .  S
C1590      H1602   1.083       .  S
C1591      C1592   1.344       .  D
C1591      H1603   1.086       .  S
C1592      C1593   1.481       .  S
C1592      H1604   1.086       .  S
C1593      C1594   1.399       .  A
C1593      C1598   1.408       .  A
C1594      C1595   1.391       .  A
C1594      H1605   1.084       .  S
C1595      C1596   1.406       .  A
C1595      H1606   1.083       .  S
C1596      C1597   1.406       .  A
C1597      C1598   1.402       .  A
C1597      H1607   1.083       .  S
C1598      H1608   1.082       .  S
C1609      C1610   1.404       .  A
C1609      C1614   1.406       .  A
C1610      C1611   1.396       .  A
C1610      H1623   1.083       .  S
C1611      C1612   1.402       .  A
C1611      H1624   1.083       .  S
C1612      C1613   1.406       .  A
C1612      C1615   1.480       .  S
C1613      C1614   1.397       .  A
C1613      H1625   1.082       .  S
C1614      H1626   1.083       .  S
C1615      C1616   1.346       .  D
C1615      H1627   1.086       .  S
C1616      C1617   1.482       .  S
C1616      H1628   1.086       .  S
C1617      C1618   1.403       .  A
C1617      C1622   1.405       .  A
C1618      C1619   1.400       .  A
C1618      H1629   1.083       .  S
C1619      C1620   1.406       .  A
C1619      H1630   1.083       .  S
C1620      C1621   1.406       .  A
C1621      C1622   1.392       .  A
C1621      H1631   1.083       .  S
C1622      H1632   1.082       .  S
C1633      C1634   1.404       .  A
C1633      C1638   1.406       .  A
C1634      C1635   1.391       .  A
C1634      H1647   1.083       .  S
C1635      C1636   1.401       .  A
C1635      H1648   1.084       .  S
C1636      C1637   1.409       .  A
C1636      C1639   1.483       .  S
C1637      C1638   1.403       .  A
C1637      H1649   1.081       .  S
C1638      H1650   1.083       .  S
C1639      C1640   1.346       .  D
C1639      H1651   1.087       .  S
C1640      C1641   1.484       .  S
C1640      H1652   1.084       .  S
C1641      C1642   1.402       .  A
C1641      C1646   1.406       .  A
C1642      C1643   1.402       .  A
C1642      H1653   1.083       .  S
C1643      C1644   1.408       .  A
C1643      H1654   1.083       .  S
C1644      C1645   1.404       .  A
C1645      C1646   1.392       .  A
C1645      H1655   1.083       .  S
C1646      H1656   1.082       .  S
C1657      C1658   1.405       .  A
C1657      C1662   1.407       .  A
C1658      C1659   1.399       .  A
C1658      H1671   1.083       .  S
C1659      C1660   1.403       .  A
C1659      H1672   1.083       .  S
C1660      C1661   1.406       .  A
C1660      C1663   1.484       .  S
C1661      C1662   1.400       .  A
C1661      H1673   1.082       .  S
C1662      H1674   1.083       .  S
C1663      C1664   1.348       .  D
C1663      H1675   1.086       .  S
C1664      C1665   1.487       .  S
C1664      H1676   1.086       .  S
C1665      C1666   1.405       .  A
C1665      C1670   1.405       .  A
C1666      C1667   1.403       .  A
C1666      H1677   1.083       .  S
C1667      C1668   1.406       .  A
C1667      H1678   1.083       .  S
C1668      C1669   1.406       .  A
C1669      C1670   1.395       .  A
C1669      H1679   1.083       .  S
C1670      H1680   1.082       .  S
C1681      C1682   1.407       .  A
C1681      C1686   1.406       .  A
C1682      C1683   1.395       .  A
C1682      H1695   1.083       .  S
C1683      C1684   1.400       .  A
C1683      H1696   1.084       .  S
C1684      C1685   1.409       .  A
C1684      C1687   1.486       .  S
C1685      C1686   1.403       .  A
C1685      H1697   1.082       .  S
C1686      H1698   1.083       .  S
C1687      C1688   1.345       .  D
C1687      H1699   1.086       .  S
C1688      C1689   1.487       .  S
C1688      H1700   1.086       .  S
C1689      C1690   1.400       .  A
C1689      C1694   1.409       .  A
C1690      C1691   1.396       .  A
C1690      H1701   1.084       .  S
C1691      C1692   1.408       .  A
C1691      H1702   1.083       .  S
C1692      C1693   1.406       .  A
C1693      C1694   1.402       .  A
C1693      H1703   1.083       .  S
C1694      H1704   1.082       .  S
C1705      C1706   1.407       .  A
C1705      C1710   1.407       .  A
C1706      C1707   1.405       .  A
C1706      H1719   1.083       .  S
C1707      C1708   1.405       .  A
C1707      H1720   1.083       .  S
C1708      C1709   1.404       .  A
C1708      C1711   1.487       .  S
C1709      C1710   1.391       .  A
C1709      H1721   1.082       .  S
C1710      H1722   1.083       .  S
C1711      C1712   1.349       .  D
C1711      H1723   1.084       .  S
C1712      C1713   1.487       .  S
C1712      H1724   1.087       .  S
C1713      C1714   1.403       .  A
C1713      C1718   1.410       .  A
C1714      C1715   1.393       .  A
C1714      H1725   1.084       .  S
C1715      C1716   1.403       .  A
C1715      H1726   1.083       .  S
C1716      C1717   1.405       .  A
C1717      C1718   1.404       .  A
C1717      H1727   1.083       .  S
C1718      H1728   1.081       .  S
C1729      C1730   1.405       .  A
C1729      C1734   1.405       .  A
C1730      C1731   1.393       .  A
C1730      H1743   1.083       .  S
C1731      C1732   1.401       .  A
C1731      H1744   1.084       .  S
C1732      C1733   1.409       .  A
C1732      C1735   1.482       .  S
C1733      C1734   1.400       .  A
C1733      H1745   1.081       .  S
C1734      H1746   1.083       .  S
C1735      C1736   1.345       .  D
C1735      H1747   1.085       .  S
C1736      C1737   1.484       .  S
C1736      H1748   1.085       .  S
C1737      C1738   1.402       .  A
C1737      C1742   1.408       .  A
C1738      C1739   1.397       .  A
C1738      H1749   1.083       .  S
C1739      C1740   1.406       .  A
C1739      H1750   1.083       .  S
C1740      C1741   1.405       .  A
C1741      C1742   1.396       .  A
C1741      H1751   1.083       .  S
C1742      H1752   1.081       .  S
C1753      C1754   1.407       .  A
C1753      C1758   1.406       .  A
C1754      C1755   1.402       .  A
C1754      H1767   1.083       .  S
C1755      C1756   1.405       .  A
C1755      H1768   1.083       .  S
C1756      C1757   1.407       .  A
C1756      C1759   1.491       .  S
C1757      C1758   1.396       .  A
C1757      H1769   1.082       .  S
C1758      H1770   1.083       .  S
C1759      C1760   1.347       .  D
C1759      H1771   1.086       .  S
C1760      C1761   1.487       .  S
C1760      H1772   1.085       .  S
C1761      C1762   1.401       .  A
C1761      C1766   1.410       .  A
C1762      C1763   1.393       .  A
C1762      H1773   1.084       .  S
C1763      C1764   1.406       .  A
C1763      H1774   1.083       .  S
C1764      C1765   1.406       .  A
C1765      C1766   1.406       .  A
C1765      H1775   1.083       .  S
C1766      H1776   1.082       .  S
C1777      C1778   1.405       .  A
C1777      C1782   1.408       .  A
C1778      C1779   1.390       .  A
C1778      H1791   1.083       .  S
C1779      C1780   1.401       .  A
C1779      H1792   1.084       .  S
C1780      C1781   1.412       .  A
C1780      C1783   1.491       .  S
C1781      C1782   1.410       .  A
C1781      H1793   1.081       .  S
C1782      H1794   1.083       .  S
C1783      C1784   1.348       .  D
C1783      H1795   1.086       .  S
C1784      C1785   1.492       .  S
C1784      H1796   1.084       .  S
C1785      C1786   1.404       .  A
C1785      C1790   1.407       .  A
C1786      C1787   1.404       .  A
C1786      H1797   1.083       .  S
C1787      C1788   1.409       .  A
C1787      H1798   1.083       .  S
C1788      C1789   1.405       .  A
C1789      C1790   1.394       .  A
C1789      H1799   1.083       .  S
C1790      H1800   1.082       .  S
C1801      C1802   1.404       .  A
C1801      C1806   1.407       .  A
C1802      C1803   1.399       .  A
C1802      H1815   1.083       .  S
C1803      C1804   1.404       .  A
C1803      H1816   1.083       .  S
C1804      C1805   1.407       .  A
C1804      C1807   1.488       .  S
C1805      C1806   1.401       .  A
C1805      H1817   1.082       .  S
C1806      H1818   1.083       .  S
C1807      C1808   1.348       .  D
C1807      H1819   1.086       .  S
C1808      C1809   1.488       .  S
C1808      H1820   1.086       .  S
C1809      C1810   1.403       .  A
C1809      C1814   1.407       .  A
C1810      C1811   1.401       .  A
C1810      H1821   1.083       .  S
C1811      C1812   1.407       .  A
C1811      H1822   1.083       .  S
C1812      C1813   1.407       .  A
C1813      C1814   1.400       .  A
C1813      H1823   1.083       .  S
C1814      H1824   1.082       .  S
C1825      C1826   1.408       .  A
C1825      C1830   1.408       .  A
C1826      C1827   1.403       .  A
C1826      H1839   1.083       .  S
C1827      C1828   1.405       .  A
C1827      H1840   1.083       .  S
C1828      C1829   1.406       .  A
C1828      C1831   1.490       .  S
C1829      C1830   1.397       .  A
C1829      H1841   1.082       .  S
C1830      H1842   1.083       .  S
C1831      C1832   1.349       .  D
C1831      H1843   1.086       .  S
C1832      C1833   1.487       .  S
C1832      H1844   1.086       .  S
C1833      C1834   1.403       .  A
C1833      C1838   1.408       .  A
C1834      C1835   1.397       .  A
C1834      H1845   1.083       .  S
C1835      C1836   1.405       .  A
C1835      H1846   1.083       .  S
C1836      C1837   1.407       .  A
C1837      C1838   1.402       .  A
C1837      H1847   1.083       .  S
C1838      H1848   1.082       .  S
C1849      C1850   1.405       .  A
C1849      C1854   1.407       .  A
C1850      C1851   1.391       .  A
C1850      H1863   1.083       .  S
C1851      C1852   1.402       .  A
C1851      H1864   1.084       .  S
C1852      C1853   1.412       .  A
C1852      C1855   1.491       .  S
C1853      C1854   1.409       .  A
C1853      H1865   1.081       .  S
C1854      H1866   1.083       .  S
C1855      C1856   1.349       .  D
C1855      H1867   1.087       .  S
C1856      C1857   1.492       .  S
C1856      H1868   1.084       .  S
C1857      C1858   1.405       .  A
C1857      C1862   1.406       .  A
C1858      C1859   1.406       .  A
C1858      H1869   1.083       .  S
C1859      C1860   1.408       .  A
C1859      H1870   1.083       .  S
C1860      C1861   1.406       .  A
C1861      C1862   1.394       .  A
C1861      H1871   1.083       .  S
C1862      H1872   1.082       .  S
C1873      C1874   1.406       .  A
C1873      C1878   1.406       .  A
C1874      C1875   1.398       .  A
C1874      H1887   1.083       .  S
C1875      C1876   1.403       .  A
C1875      H1888   1.083       .  S
C1876      C1877   1.408       .  A
C1876      C1879   1.487       .  S
C1877      C1878   1.400       .  A
C1877      H1889   1.082       .  S
C1878      H1890   1.083       .  S
C1879      C1880   1.346       .  D
C1879      H1891   1.086       .  S
C1880      C1881   1.485       .  S
C1880      H1892   1.085       .  S
C1881      C1882   1.401       .  A
C1881      C1886   1.408       .  A
C1882      C1883   1.396       .  A
C1882      H1893   1.083       .  S
C1883      C1884   1.407       .  A
C1883      H1894   1.083       .  S
C1884      C1885   1.406       .  A
C1885      C1886   1.401       .  A
C1885      H1895   1.083       .  S
C1886      H1896   1.082       .  S
C1897      C1898   1.406       .  A
C1897      C1902   1.406       .  A
C1898      C1899   1.402       .  A
C1898      H1911   1.083       .  S
C1899      C1900   1.405       .  A
C1899      H1912   1.083       .  S
C1900      C1901   1.405       .  A
C1900      C1903   1.486       .  S
C1901      C1902   1.394       .  A
C1901      H1913   1.082       .  S
C1902      H1914   1.083       .  S
C1903      C1904   1.348       .  D
C1903      H1915   1.086       .  S
C1904      C1905   1.484       .  S
C1904      H1916   1.086       .  S
C1905      C1906   1.403       .  A
C1905      C1910   1.407       .  A
C1906      C1907   1.397       .  A
C1906      H1917   1.083       .  S
C1907      C1908   1.405       .  A
C1907      H1918   1.083       .  S
C1908      C1909   1.407       .  A
C1909      C1910   1.400       .  A
C1909      H1919   1.083       .  S
C1910      H1920   1.082       .  S
C1921      C1922   1.407       .  A
C1921      C1926   1.406       .  A
C1922      C1923   1.403       .  A
C1922      H1935   1.083       .  S
C1923      C1924   1.404       .  A
C1923      H1936   1.083       .  S
C1924      C1925   1.407       .  A
C1924      C1927   1.488       .  S
C1925      C1926   1.394       .  A
C1925      H1937   1.082       .  S
C1926      H1938   1.083       .  S
C1927      C1928   1.347       .  D
C1927      H1939   1.085       .  S
C1928      C1929   1.486       .  S
C1928      H1940   1.086       .  S
C1929      C1930   1.401       .  A
C1929      C1934   1.410       .  A
C1930      C1931   1.393       .  A
C1930      H1941   1.084       .  S
C1931      C1932   1.405       .  A
C1931      H1942   1.083       .  S
C1932      C1933   1.405       .  A
C1933      C1934   1.405       .  A
C1933      H1943   1.083       .  S
C1934      H1944   1.081       .  S
C1945      C1946   1.407       .  A
C1945      C1950   1.408       .  A
C1946      C1947   1.403       .  A
C1946      H1959   1.083       .  S
C1947      C1948   1.405       .  A
C1947      H1960   1.083       .  S
C1948      C1949   1.405       .  A
C1948      C1951   1.489       .  S
C1949      C1950   1.397       .  A
C1949      H1961   1.082       .  S
C1950      H1962   1.083       .  S
C1951      C1952   1.350       .  D
C1951      H1963   1.086       .  S
C1952      C1953   1.489       .  S
C1952      H1964   1.086       .  S
C1953      C1954   1.404       .  A
C1953      C1958   1.406       .  A
C1954      C1955   1.401       .  A
C1954      H1965   1.083       .  S
C1955      C1956   1.407       .  A
C1955      H1966   1.083       .  S
C1956      C1957   1.408       .  A
C1957      C1958   1.401       .  A
C1957      H1967   1.083       .  S
C1958      H1968   1.082       .  S
C1969      C1970   1.405       .  A
C1969      C1974   1.405       .  A
C1970      C1971   1.395       .  A
C1970      H1983   1.083       .  S
C1971      C1972   1.402       .  A
C1971      H1984   1.084       .  S
C1972      C1973   1.407       .  A
C1972      C1975   1.480       .  S
C1973      C1974   1.397       .  A
C1973      H1985   1.082       .  S
C1974      H1986   1.083       .  S
C1975      C1976   1.344       .  D
C1975      H1987   1.086       .  S
C1976      C1977   1.479       .  S
C1976      H1988   1.085       .  S
C1977      C1978   1.401       .  A
C1977      C1982   1.407       .  A
C1978      C1979   1.395       .  A
C1978      H1989   1.083       .  S
C1979      C1980   1.405       .  A
C1979      H1990   1.083       .  S
C1980      C1981   1.403       .  A
C1981      C1982   1.397       .  A
C1981      H1991   1.083       .  S
C1982      H1992   1.082       .  S
C1993      C1994   1.409       .  A
C1993      C1998   1.404       .  A
C1994      C1995   1.402       .  A
C1994      H2007   1.083       .  S
C1995      C1996   1.402       .  A
C1995      H2008   1.083       .  S
C1996      C1997   1.406       .  A
C1996      C1999   1.485       .  S
C1997      C1998   1.393       .  A
C1997      H2009   1.083       .  S
C1998      H2010   1.083       .  S
C1999      C2000   1.346   1_556  D
C1999      H2011   1.084       .  S
C2000      C2001   1.486       .  S
C2000      H2012   1.087   1_554  S
C2001      C2002   1.401       .  A
C2001      C2006   1.411       .  A
C2002      C2003   1.390       .  A
C2002      H2013   1.084       .  S
C2003      C2004   1.405       .  A
C2003      H2014   1.083       .  S
C2004      C2005   1.407       .  A
C2005      C2006   1.407       .  A
C2005      H2015   1.083       .  S
C2006      H2016   1.081       .  S
C2017      C2018   1.406       .  A
C2017      C2022   1.407       .  A
C2018      C2019   1.398       .  A
C2018      H2031   1.083       .  S
C2019      C2020   1.402       .  A
C2019      H2032   1.083       .  S
C2020      C2021   1.408       .  A
C2020      C2023   1.486       .  S
C2021      C2022   1.400       .  A
C2021      H2033   1.082       .  S
C2022      H2034   1.083       .  S
C2023      C2024   1.345       .  D
C2023      H2035   1.087       .  S
C2024      C2025   1.483       .  S
C2024      H2036   1.086       .  S
C2025      C2026   1.400       .  A
C2025      C2030   1.408       .  A
C2026      C2027   1.395       .  A
C2026      H2037   1.084       .  S
C2027      C2028   1.406       .  A
C2027      H2038   1.083       .  S
C2028      C2029   1.405       .  A
C2029      C2030   1.403       .  A
C2029      H2039   1.083       .  S
C2030      H2040   1.083       .  S
C2041      C2042   1.407       .  A
C2041      C2046   1.405       .  A
C2042      C2043   1.394       .  A
C2042      H2055   1.083       .  S
C2043      C2044   1.401       .  A
C2043      H2056   1.084       .  S
C2044      C2045   1.410       .  A
C2044      C2047   1.488       .  S
C2045      C2046   1.404       .  A
C2045      H2057   1.081       .  S
C2046      H2058   1.083       .  S
C2047      C2048   1.347       .  D
C2047      H2059   1.085       .  S
C2048      C2049   1.490       .  S
C2048      H2060   1.085       .  S
C2049      C2050   1.403       .  A
C2049      C2054   1.409       .  A
C2050      C2051   1.399       .  A
C2050      H2061   1.083       .  S
C2051      C2052   1.408       .  A
C2051      H2062   1.083       .  S
C2052      C2053   1.405       .  A
C2053      C2054   1.401       .  A
C2053      H2063   1.083       .  S
C2054      H2064   1.081       .  S
C2065      C2066   1.408       .  A
C2065      C2070   1.407       .  A
C2066      C2067   1.404       .  A
C2066      H2079   1.083       .  S
C2067      C2068   1.405       .  A
C2067      H2080   1.083       .  S
C2068      C2069   1.406       .  A
C2068      C2071   1.491       .  S
C2069      C2070   1.396       .  A
C2069      H2081   1.082       .  S
C2070      H2082   1.083       .  S
C2071      C2072   1.349   1_655  D
C2071      H2083   1.084   1_655  S
C2072      C2073   1.491       .  S
C2072      H2084   1.086       .  S
C2073      C2074   1.403       .  A
C2073      C2078   1.412       .  A
C2074      C2075   1.393       .  A
C2074      H2085   1.084       .  S
C2075      C2076   1.403       .  A
C2075      H2086   1.083       .  S
C2076      C2077   1.405       .  A
C2077      C2078   1.406       .  A
C2077      H2087   1.083       .  S
C2078      H2088   1.081       .  S
C2089      C2090   1.407       .  A
C2089      C2094   1.406       .  A
C2090      C2091   1.395       .  A
C2090      H2103   1.083       .  S
C2091      C2092   1.401       .  A
C2091      H2104   1.084       .  S
C2092      C2093   1.409       .  A
C2092      C2095   1.486       .  S
C2093      C2094   1.403       .  A
C2093      H2105   1.082       .  S
C2094      H2106   1.083       .  S
C2095      C2096   1.347       .  D
C2095      H2107   1.085       .  S
C2096      C2097   1.489       .  S
C2096      H2108   1.086       .  S
C2097      C2098   1.404       .  A
C2097      C2102   1.407       .  A
C2098      C2099   1.401       .  A
C2098      H2109   1.083       .  S
C2099      C2100   1.406       .  A
C2099      H2110   1.083       .  S
C2100      C2101   1.406       .  A
C2101      C2102   1.398       .  A
C2101      H2111   1.083       .  S
C2102      H2112   1.082       .  S
C2113      C2114   1.406       .  A
C2113      C2118   1.404       .  A
C2114      C2115   1.397       .  A
C2114      H2127   1.083       .  S
C2115      C2116   1.402       .  A
C2115      H2128   1.083       .  S
C2116      C2117   1.408       .  A
C2116      C2119   1.486       .  S
C2117      C2118   1.401       .  A
C2117      H2129   1.082       .  S
C2118      H2130   1.083       .  S
C2119      C2120   1.347       .  D
C2119      H2131   1.085       .  S
C2120      C2121   1.488       .  S
C2120      H2132   1.086       .  S
C2121      C2122   1.404       .  A
C2121      C2126   1.407       .  A
C2122      C2123   1.399       .  A
C2122      H2133   1.083       .  S
C2123      C2124   1.406       .  A
C2123      H2134   1.083       .  S
C2124      C2125   1.407       .  A
C2125      C2126   1.399       .  A
C2125      H2135   1.083       .  S
C2126      H2136   1.082       .  S
C2137      C2138   1.407       .  A
C2137      C2142   1.406       .  A
C2138      C2139   1.407       .  A
C2138      H2151   1.083       .  S
C2139      C2140   1.407       .  A
C2139      H2152   1.083       .  S
C2140      C2141   1.407       .  A
C2140      C2143   1.494       .  S
C2141      C2142   1.393       .  A
C2141      H2153   1.081       .  S
C2142      H2154   1.083       .  S
C2143      C2144   1.350       .  D
C2143      H2155   1.085       .  S
C2144      C2145   1.490       .  S
C2144      H2156   1.086       .  S
C2145      C2146   1.403       .  A
C2145      C2150   1.409       .  A
C2146      C2147   1.395   1_565  A
C2146      H2157   1.084       .  S
C2147      C2148   1.403       .  A
C2147      H2158   1.083       .  S
C2148      C2149   1.407       .  A
C2149      C2150   1.407   1_545  A
C2149      H2159   1.083       .  S
C2150      H2160   1.081       .  S
C2161      C2162   1.406       .  A
C2161      C2166   1.406       .  A
C2162      C2163   1.399       .  A
C2162      H2175   1.083       .  S
C2163      C2164   1.403       .  A
C2163      H2176   1.083       .  S
C2164      C2165   1.407       .  A
C2164      C2167   1.485       .  S
C2165      C2166   1.397       .  A
C2165      H2177   1.082       .  S
C2166      H2178   1.083       .  S
C2167      C2168   1.346       .  D
C2167      H2179   1.086       .  S
C2168      C2169   1.482       .  S
C2168      H2180   1.086       .  S
C2169      C2170   1.401       .  A
C2169      C2174   1.408       .  A
C2170      C2171   1.395       .  A
C2170      H2181   1.083       .  S
C2171      C2172   1.406       .  A
C2171      H2182   1.083       .  S
C2172      C2173   1.405       .  A
C2173      C2174   1.401       .  A
C2173      H2183   1.083       .  S
C2174      H2184   1.082       .  S
C2185      C2186   1.407       .  A
C2185      C2190   1.408       .  A
C2186      C2187   1.399       .  A
C2186      H2199   1.083       .  S
C2187      C2188   1.403       .  A
C2187      H2200   1.083       .  S
C2188      C2189   1.406       .  A
C2188      C2191   1.486       .  S
C2189      C2190   1.399       .  A
C2189      H2201   1.082       .  S
C2190      H2202   1.083       .  S
C2191      C2192   1.347       .  D
C2191      H2203   1.086       .  S
C2192      C2193   1.484       .  S
C2192      H2204   1.086       .  S
C2193      C2194   1.402       .  A
C2193      C2198   1.406       .  A
C2194      C2195   1.398       .  A
C2194      H2205   1.083       .  S
C2195      C2196   1.406       .  A
C2195      H2206   1.083       .  S
C2196      C2197   1.408       .  A
C2197      C2198   1.399       .  A
C2197      H2207   1.083       .  S
C2198      H2208   1.082       .  S
C2209      C2210   1.408       .  A
C2209      C2214   1.406       .  A
C2210      C2211   1.405       .  A
C2210      H2223   1.083       .  S
C2211      C2212   1.405       .  A
C2211      H2224   1.083       .  S
C2212      C2213   1.405       .  A
C2212      C2215   1.489       .  S
C2213      C2214   1.393       .  A
C2213      H2225   1.082       .  S
C2214      H2226   1.083       .  S
C2215      C2216   1.349   1_556  D
C2215      H2227   1.083   1_556  S
C2216      C2217   1.490       .  S
C2216      H2228   1.087       .  S
C2217      C2218   1.403       .  A
C2217      C2222   1.411       .  A
C2218      C2219   1.393       .  A
C2218      H2229   1.084       .  S
C2219      C2220   1.403       .  A
C2219      H2230   1.083       .  S
C2220      C2221   1.405       .  A
C2221      C2222   1.405       .  A
C2221      H2231   1.083       .  S
C2222      H2232   1.080       .  S
C2233      C2234   1.407       .  A
C2233      C2238   1.407       .  A
C2234      C2235   1.397       .  A
C2234      H2247   1.083       .  S
C2235      C2236   1.402       .  A
C2235      H2248   1.083       .  S
C2236      C2237   1.408       .  A
C2236      C2239   1.486       .  S
C2237      C2238   1.400       .  A
C2237      H2249   1.082       .  S
C2238      H2250   1.083       .  S
C2239      C2240   1.347       .  D
C2239      H2251   1.086       .  S
C2240      C2241   1.487       .  S
C2240      H2252   1.086       .  S
C2241      C2242   1.403       .  A
C2241      C2246   1.407       .  A
C2242      C2243   1.399       .  A
C2242      H2253   1.083       .  S
C2243      C2244   1.407       .  A
C2243      H2254   1.083       .  S
C2244      C2245   1.406       .  A
C2245      C2246   1.399       .  A
C2245      H2255   1.083       .  S
C2246      H2256   1.082       .  S
C2257      C2258   1.406       .  A
C2257      C2262   1.407       .  A
C2258      C2259   1.396       .  A
C2258      H2271   1.083       .  S
C2259      C2260   1.402       .  A
C2259      H2272   1.084       .  S
C2260      C2261   1.409       .  A
C2260      C2263   1.488       .  S
C2261      C2262   1.403       .  A
C2261      H2273   1.082       .  S
C2262      H2274   1.083       .  S
C2263      C2264   1.347       .  D
C2263      H2275   1.086       .  S
C2264      C2265   1.490       .  S
C2264      H2276   1.085       .  S
C2265      C2266   1.403       .  A
C2265      C2270   1.408       .  A
C2266      C2267   1.400       .  A
C2266      H2277   1.083       .  S
C2267      C2268   1.407       .  A
C2267      H2278   1.083       .  S
C2268      C2269   1.407       .  A
C2269      C2270   1.400       .  A
C2269      H2279   1.083       .  S
C2270      H2280   1.082       .  S
C2281      C2282   1.404       .  A
C2281      C2286   1.407       .  A
C2282      C2283   1.392       .  A
C2282      H2295   1.083       .  S
C2283      C2284   1.402       .  A
C2283      H2296   1.084       .  S
C2284      C2285   1.410       .  A
C2284      C2287   1.487       .  S
C2285      C2286   1.406       .  A
C2285      H2297   1.081       .  S
C2286      H2298   1.083       .  S
C2287      C2288   1.347   1_556  D
C2287      H2299   1.087   1_556  S
C2288      C2289   1.489       .  S
C2288      H2300   1.085       .  S
C2289      C2290   1.404       .  A
C2289      C2294   1.407       .  A
C2290      C2291   1.404       .  A
C2290      H2301   1.083       .  S
C2291      C2292   1.408       .  A
C2291      H2302   1.083       .  S
C2292      C2293   1.405       .  A
C2293      C2294   1.394       .  A
C2293      H2303   1.083       .  S
C2294      H2304   1.082       .  S
C2305      C2306   1.407       .  A
C2305      C2310   1.406       .  A
C2306      C2307   1.397       .  A
C2306      H2319   1.083       .  S
C2307      C2308   1.402       .  A
C2307      H2320   1.083       .  S
C2308      C2309   1.408       .  A
C2308      C2311   1.487       .  S
C2309      C2310   1.400       .  A
C2309      H2321   1.082       .  S
C2310      H2322   1.083       .  S
C2311      C2312   1.345       .  D
C2311      H2323   1.086       .  S
C2312      C2313   1.484       .  S
C2312      H2324   1.086       .  S
C2313      C2314   1.399       .  A
C2313      C2318   1.410       .  A
C2314      C2315   1.393       .  A
C2314      H2325   1.084       .  S
C2315      C2316   1.408       .  A
C2315      H2326   1.083       .  S
C2316      C2317   1.405       .  A
C2317      C2318   1.404       .  A
C2317      H2327   1.083       .  S
C2318      H2328   1.082       .  S
C2329      C2330   1.407       .  A
C2329      C2334   1.406       .  A
C2330      C2331   1.398       .  A
C2330      H2343   1.083       .  S
C2331      C2332   1.402       .  A
C2331      H2344   1.083       .  S
C2332      C2333   1.408       .  A
C2332      C2335   1.487       .  S
C2333      C2334   1.403       .  A
C2333      H2345   1.082       .  S
C2334      H2346   1.083       .  S
C2335      C2336   1.348       .  D
C2335      H2347   1.085       .  S
C2336      C2337   1.491       .  S
C2336      H2348   1.086       .  S
C2337      C2338   1.405       .  A
C2337      C2342   1.407       .  A
C2338      C2339   1.401       .  A
C2338      H2349   1.083       .  S
C2339      C2340   1.407       .  A
C2339      H2350   1.083       .  S
C2340      C2341   1.407       .  A
C2341      C2342   1.400       .  A
C2341      H2351   1.083       .  S
C2342      H2352   1.082       .  S
C2353      C2354   1.406       .  A
C2353      C2358   1.408       .  A
C2354      C2355   1.391   1_545  A
C2354      H2367   1.083       .  S
C2355      C2356   1.402       .  A
C2355      H2368   1.084       .  S
C2356      C2357   1.411       .  A
C2356      C2359   1.491       .  S
C2357      C2358   1.409   1_565  A
C2357      H2369   1.081       .  S
C2358      H2370   1.083       .  S
C2359      C2360   1.349       .  D
C2359      H2371   1.086       .  S
C2360      C2361   1.493       .  S
C2360      H2372   1.084       .  S
C2361      C2362   1.406       .  A
C2361      C2366   1.408       .  A
C2362      C2363   1.405       .  A
C2362      H2373   1.083       .  S
C2363      C2364   1.405       .  A
C2363      H2374   1.083       .  S
C2364      C2365   1.403       .  A
C2365      C2366   1.395       .  A
C2365      H2375   1.083       .  S
C2366      H2376   1.082       .  S
C2377      C2378   1.406       .  A
C2377      C2382   1.407       .  A
C2378      C2379   1.399       .  A
C2378      H2391   1.083       .  S
C2379      C2380   1.403       .  A
C2379      H2392   1.083       .  S
C2380      C2381   1.405       .  A
C2380      C2383   1.483       .  S
C2381      C2382   1.396       .  A
C2381      H2393   1.082       .  S
C2382      H2394   1.083       .  S
C2383      C2384   1.345       .  D
C2383      H2395   1.087       .  S
C2384      C2385   1.480       .  S
C2384      H2396   1.086       .  S
C2385      C2386   1.400       .  A
C2385      C2390   1.407       .  A
C2386      C2387   1.395       .  A
C2386      H2397   1.083       .  S
C2387      C2388   1.406       .  A
C2387      H2398   1.083       .  S
C2388      C2389   1.405       .  A
C2389      C2390   1.400       .  A
C2389      H2399   1.083       .  S
C2390      H2400   1.083       .  S
C2401      C2402   1.405       .  A
C2401      C2406   1.406       .  A
C2402      C2403   1.398       .  A
C2402      H2415   1.083       .  S
C2403      C2404   1.402       .  A
C2403      H2416   1.083       .  S
C2404      C2405   1.407       .  A
C2404      C2407   1.484       .  S
C2405      C2406   1.401       .  A
C2405      H2417   1.083       .  S
C2406      H2418   1.083       .  S
C2407      C2408   1.346       .  D
C2407      H2419   1.086       .  S
C2408      C2409   1.486       .  S
C2408      H2420   1.087       .  S
C2409      C2410   1.403       .  A
C2409      C2414   1.407       .  A
C2410      C2411   1.398       .  A
C2410      H2421   1.083       .  S
C2411      C2412   1.406       .  A
C2411      H2422   1.083       .  S
C2412      C2413   1.407       .  A
C2413      C2414   1.399       .  A
C2413      H2423   1.083       .  S
C2414      H2424   1.082       .  S
C2425      C2426   1.408       .  A
C2425      C2430   1.405       .  A
C2426      C2427   1.407       .  A
C2426      H2439   1.083       .  S
C2427      C2428   1.405       .  A
C2427      H2440   1.083       .  S
C2428      C2429   1.405       .  A
C2428      C2431   1.489       .  S
C2429      C2430   1.391       .  A
C2429      H2441   1.083       .  S
C2430      H2442   1.083       .  S
C2431      C2432   1.349   1_655  D
C2431      H2443   1.084   1_655  S
C2432      C2433   1.489       .  S
C2432      H2444   1.087       .  S
C2433      C2434   1.403       .  A
C2433      C2438   1.410       .  A
C2434      C2435   1.392       .  A
C2434      H2445   1.084       .  S
C2435      C2436   1.403       .  A
C2435      H2446   1.083       .  S
C2436      C2437   1.409       .  A
C2437      C2438   1.407       .  A
C2437      H2447   1.083       .  S
C2438      H2448   1.081       .  S
C2449      C2450   1.406       .  A
C2449      C2454   1.404       .  A
C2450      C2451   1.397       .  A
C2450      H2463   1.083       .  S
C2451      C2452   1.402       .  A
C2451      H2464   1.083       .  S
C2452      C2453   1.408       .  A
C2452      C2455   1.484       .  S
C2453      C2454   1.399       .  A
C2453      H2465   1.082       .  S
C2454      H2466   1.083       .  S
C2455      C2456   1.346       .  D
C2455      H2467   1.085       .  S
C2456      C2457   1.486       .  S
C2456      H2468   1.086       .  S
C2457      C2458   1.403       .  A
C2457      C2462   1.408       .  A
C2458      C2459   1.396       .  A
C2458      H2469   1.083       .  S
C2459      C2460   1.406       .  A
C2459      H2470   1.083       .  S
C2460      C2461   1.406       .  A
C2461      C2462   1.399       .  A
C2461      H2471   1.083       .  S
C2462      H2472   1.081       .  S
C2473      C2474   1.405       .  A
C2473      C2478   1.404       .  A
C2474      C2475   1.395       .  A
C2474      H2487   1.083       .  S
C2475      C2476   1.401       .  A
C2475      H2488   1.083       .  S
C2476      C2477   1.408       .  A
C2476      C2479   1.481       .  S
C2477      C2478   1.398       .  A
C2477      H2489   1.082       .  S
C2478      H2490   1.083       .  S
C2479      C2480   1.345       .  D
C2479      H2491   1.085       .  S
C2480      C2481   1.482       .  S
C2480      H2492   1.086       .  S
C2481      C2482   1.401       .  A
C2481      C2486   1.408       .  A
C2482      C2483   1.394       .  A
C2482      H2493   1.084       .  S
C2483      C2484   1.406       .  A
C2483      H2494   1.083       .  S
C2484      C2485   1.405       .  A
C2485      C2486   1.397       .  A
C2485      H2495   1.083       .  S
C2486      H2496   1.081       .  S
C2497      C2498   1.404       .  A
C2497      C2502   1.407       .  A
C2498      C2499   1.393       .  A
C2498      H2511   1.083       .  S
C2499      C2500   1.403       .  A
C2499      H2512   1.084       .  S
C2500      C2501   1.411       .  A
C2500      C2503   1.490       .  S
C2501      C2502   1.406       .  A
C2501      H2513   1.081       .  S
C2502      H2514   1.083       .  S
C2503      C2504   1.349       .  D
C2503      H2515   1.085       .  S
C2504      C2505   1.493       .  S
C2504      H2516   1.084       .  S
C2505      C2506   1.406       .  A
C2505      C2510   1.408       .  A
C2506      C2507   1.404   1_565  A
C2506      H2517   1.083       .  S
C2507      C2508   1.407       .  A
C2507      H2518   1.083       .  S
C2508      C2509   1.405       .  A
C2509      C2510   1.395   1_545  A
C2509      H2519   1.083       .  S
C2510      H2520   1.081       .  S
C2521      C2522   1.407       .  A
C2521      C2526   1.406       .  A
C2522      C2523   1.400       .  A
C2522      H2535   1.083       .  S
C2523      C2524   1.404       .  A
C2523      H2536   1.083       .  S
C2524      C2525   1.406       .  A
C2524      C2527   1.486       .  S
C2525      C2526   1.398       .  A
C2525      H2537   1.082       .  S
C2526      H2538   1.083       .  S
C2527      C2528   1.347       .  D
C2527      H2539   1.086       .  S
C2528      C2529   1.484       .  S
C2528      H2540   1.086       .  S
C2529      C2530   1.403       .  A
C2529      C2534   1.406       .  A
C2530      C2531   1.399       .  A
C2530      H2541   1.083       .  S
C2531      C2532   1.405       .  A
C2531      H2542   1.083       .  S
C2532      C2533   1.406       .  A
C2533      C2534   1.397       .  A
C2533      H2543   1.083       .  S
C2534      H2544   1.082       .  S
C2545      C2546   1.406       .  A
C2545      C2550   1.407       .  A
C2546      C2547   1.400       .  A
C2546      H2559   1.083       .  S
C2547      C2548   1.404       .  A
C2547      H2560   1.083       .  S
C2548      C2549   1.406       .  A
C2548      C2551   1.486       .  S
C2549      C2550   1.399       .  A
C2549      H2561   1.082       .  S
C2550      H2562   1.083       .  S
C2551      C2552   1.348       .  D
C2551      H2563   1.086       .  S
C2552      C2553   1.487       .  S
C2552      H2564   1.086       .  S
C2553      C2554   1.404       .  A
C2553      C2558   1.406       .  A
C2554      C2555   1.400       .  A
C2554      H2565   1.083       .  S
C2555      C2556   1.407       .  A
C2555      H2566   1.083       .  S
C2556      C2557   1.408       .  A
C2557      C2558   1.399       .  A
C2557      H2567   1.083       .  S
C2558      H2568   1.082       .  S
C2569      C2570   1.403       .  A
C2569      C2574   1.406       .  A
C2570      C2571   1.395       .  A
C2570      H2583   1.083       .  S
C2571      C2572   1.404       .  A
C2571      H2584   1.084       .  S
C2572      C2573   1.411       .  A
C2572      C2575   1.492       .  S
C2573      C2574   1.405       .  A
C2573      H2585   1.080       .  S
C2574      H2586   1.083       .  S
C2575      C2576   1.350   1_455  D
C2575      H2587   1.086       .  S
C2576      C2577   1.491       .  S
C2576      H2588   1.083   1_655  S
C2577      C2578   1.406       .  A
C2577      C2582   1.406       .  A
C2578      C2579   1.405       .  A
C2578      H2589   1.083       .  S
C2579      C2580   1.407       .  A
C2579      H2590   1.083       .  S
C2580      C2581   1.406       .  A
C2581      C2582   1.394       .  A
C2581      H2591   1.083       .  S
C2582      H2592   1.082       .  S
C2593      C2594   1.405       .  A
C2593      C2598   1.404       .  A
C2594      C2595   1.396       .  A
C2594      H2607   1.083       .  S
C2595      C2596   1.401       .  A
C2595      H2608   1.083       .  S
C2596      C2597   1.409       .  A
C2596      C2599   1.484       .  S
C2597      C2598   1.403       .  A
C2597      H2609   1.082       .  S
C2598      H2610   1.083       .  S
C2599      C2600   1.346       .  D
C2599      H2611   1.085       .  S
C2600      C2601   1.488       .  S
C2600      H2612   1.086       .  S
C2601      C2602   1.403       .  A
C2601      C2606   1.408       .  A
C2602      C2603   1.399       .  A
C2602      H2613   1.083       .  S
C2603      C2604   1.407       .  A
C2603      H2614   1.083       .  S
C2604      C2605   1.407       .  A
C2605      C2606   1.400       .  A
C2605      H2615   1.083       .  S
C2606      H2616   1.082       .  S
C2617      C2618   1.407       .  A
C2617      C2622   1.408       .  A
C2618      C2619   1.398       .  A
C2618      H2631   1.083       .  S
C2619      C2620   1.402       .  A
C2619      H2632   1.083       .  S
C2620      C2621   1.406       .  A
C2620      C2623   1.485       .  S
C2621      C2622   1.401       .  A
C2621      H2633   1.083       .  S
C2622      H2634   1.083       .  S
C2623      C2624   1.347       .  D
C2623      H2635   1.086       .  S
C2624      C2625   1.487       .  S
C2624      H2636   1.087       .  S
C2625      C2626   1.404       .  A
C2625      C2630   1.407       .  A
C2626      C2627   1.400       .  A
C2626      H2637   1.083       .  S
C2627      C2628   1.406       .  A
C2627      H2638   1.083       .  S
C2628      C2629   1.406       .  A
C2629      C2630   1.398       .  A
C2629      H2639   1.083       .  S
C2630      H2640   1.082       .  S
C2641      C2642   1.403       .  A
C2641      C2646   1.405       .  A
C2642      C2643   1.395       .  A
C2642      H2655   1.083       .  S
C2643      C2644   1.403       .  A
C2643      H2656   1.084       .  S
C2644      C2645   1.410       .  A
C2644      C2647   1.490       .  S
C2645      C2646   1.405       .  A
C2645      H2657   1.081       .  S
C2646      H2658   1.083       .  S
C2647      C2648   1.349   1_556  D
C2647      H2659   1.085   1_556  S
C2648      C2649   1.492       .  S
C2648      H2660   1.084       .  S
C2649      C2650   1.405       .  A
C2649      C2654   1.408       .  A
C2650      C2651   1.403       .  A
C2650      H2661   1.083       .  S
C2651      C2652   1.406       .  A
C2651      H2662   1.083       .  S
C2652      C2653   1.407       .  A
C2653      C2654   1.397       .  A
C2653      H2663   1.083       .  S
C2654      H2664   1.081       .  S
C2665      C2666   1.405       .  A
C2665      C2670   1.407       .  A
C2666      C2667   1.396       .  A
C2666      H2679   1.083       .  S
C2667      C2668   1.402       .  A
C2667      H2680   1.083       .  S
C2668      C2669   1.407       .  A
C2668      C2671   1.482       .  S
C2669      C2670   1.396       .  A
C2669      H2681   1.082       .  S
C2670      H2682   1.083       .  S
C2671      C2672   1.344       .  D
C2671      H2683   1.086       .  S
C2672      C2673   1.481       .  S
C2672      H2684   1.086       .  S
C2673      C2674   1.400       .  A
C2673      C2678   1.408       .  A
C2674      C2675   1.394       .  A
C2674      H2685   1.084       .  S
C2675      C2676   1.406       .  A
C2675      H2686   1.083       .  S
C2676      C2677   1.405       .  A
C2677      C2678   1.400       .  A
C2677      H2687   1.083       .  S
C2678      H2688   1.082       .  S
C2689      C2690   1.406       .  A
C2689      C2694   1.407       .  A
C2690      C2691   1.403       .  A
C2690      H2703   1.083       .  S
C2691      C2692   1.405       .  A
C2691      H2704   1.083       .  S
C2692      C2693   1.405       .  A
C2692      C2695   1.486       .  S
C2693      C2694   1.395       .  A
C2693      H2705   1.082       .  S
C2694      H2706   1.083       .  S
C2695      C2696   1.348       .  D
C2695      H2707   1.086       .  S
C2696      C2697   1.485       .  S
C2696      H2708   1.086       .  S
C2697      C2698   1.404       .  A
C2697      C2702   1.406       .  A
C2698      C2699   1.399       .  A
C2698      H2709   1.083       .  S
C2699      C2700   1.405       .  A
C2699      H2710   1.083       .  S
C2700      C2701   1.406       .  A
C2701      C2702   1.399       .  A
C2701      H2711   1.083       .  S
C2702      H2712   1.082       .  S
C2713      C2714   1.407       .  A
C2713      C2718   1.408       .  A
C2714      C2715   1.406       .  A
C2714      H2727   1.083       .  S
C2715      C2716   1.406       .  A
C2715      H2728   1.083       .  S
C2716      C2717   1.405       .  A
C2716      C2719   1.491       .  S
C2717      C2718   1.393       .  A
C2717      H2729   1.082       .  S
C2718      H2730   1.083       .  S
C2719      C2720   1.349   1_655  D
C2719      H2731   1.084   1_655  S
C2720      C2721   1.489       .  S
C2720      H2732   1.086       .  S
C2721      C2722   1.402       .  A
C2721      C2726   1.410       .  A
C2722      C2723   1.392       .  A
C2722      H2733   1.084       .  S
C2723      C2724   1.405       .  A
C2723      H2734   1.083       .  S
C2724      C2725   1.407       .  A
C2725      C2726   1.407       .  A
C2725      H2735   1.083       .  S
C2726      H2736   1.081       .  S
C2737      C2738   1.406       .  A
C2737      C2742   1.406       .  A
C2738      C2739   1.398       .  A
C2738      H2751   1.083       .  S
C2739      C2740   1.402       .  A
C2739      H2752   1.083       .  S
C2740      C2741   1.408       .  A
C2740      C2743   1.486       .  S
C2741      C2742   1.401       .  A
C2741      H2753   1.082       .  S
C2742      H2754   1.083       .  S
C2743      C2744   1.347       .  D
C2743      H2755   1.085       .  S
C2744      C2745   1.488       .  S
C2744      H2756   1.086       .  S
C2745      C2746   1.405       .  A
C2745      C2750   1.407       .  A
C2746      C2747   1.399       .  A
C2746      H2757   1.083       .  S
C2747      C2748   1.403       .  A
C2747      H2758   1.083       .  S
C2748      C2749   1.407       .  A
C2749      C2750   1.398       .  A
C2749      H2759   1.083       .  S
C2750      H2760   1.081       .  S
C2761      C2762   1.408       .  A
C2761      C2766   1.405       .  A
C2762      C2763   1.399       .  A
C2762      H2775   1.083       .  S
C2763      C2764   1.402       .  A
C2763      H2776   1.083       .  S
C2764      C2765   1.408       .  A
C2764      C2767   1.488       .  S
C2765      C2766   1.402       .  A
C2765      H2777   1.082       .  S
C2766      H2778   1.083       .  S
C2767      C2768   1.347       .  D
C2767      H2779   1.086       .  S
C2768      C2769   1.489       .  S
C2768      H2780   1.087       .  S
C2769      C2770   1.402       .  A
C2769      C2774   1.409       .  A
C2770      C2771   1.397       .  A
C2770      H2781   1.084       .  S
C2771      C2772   1.408       .  A
C2771      H2782   1.083       .  S
C2772      C2773   1.407       .  A
C2773      C2774   1.404       .  A
C2773      H2783   1.083       .  S
C2774      H2784   1.082       .  S
C2785      C2786   1.405       .  A
C2785      C2790   1.405       .  A
C2786      C2787   1.407       .  A
C2786      H2799   1.083       .  S
C2787      C2788   1.408       .  A
C2787      H2800   1.083       .  S
C2788      C2789   1.406       .  A
C2788      C2791   1.492       .  S
C2789      C2790   1.392       .  A
C2789      H2801   1.081       .  S
C2790      H2802   1.083       .  S
C2791      C2792   1.350       .  D
C2791      H2803   1.085       .  S
C2792      C2793   1.485       .  S
C2792      H2804   1.085       .  S
C2793      C2794   1.403       .  A
C2793      C2798   1.407       .  A
C2794      C2795   1.395   1_565  A
C2794      H2805   1.084       .  S
C2795      C2796   1.404       .  A
C2795      H2806   1.083       .  S
C2796      C2797   1.407       .  A
C2797      C2798   1.404   1_545  A
C2797      H2807   1.083       .  S
C2798      H2808   1.082       .  S
C2809      C2810   1.401       .  A
C2809      C2814   1.401       .  A
C2810      C2811   1.398       .  A
C2810      H2823   1.083       .  S
C2811      C2812   1.405       .  A
C2811      H2824   1.083       .  S
C2812      C2813   1.408       .  A
C2812      C2815   1.483       .  S
C2813      C2814   1.393       .  A
C2813      H2825   1.081       .  S
C2814      H2826   1.083       .  S
C2815      C2816   1.346       .  D
C2815      H2827   1.084       .  S
C2816      C2817   1.482       .  S
C2816      H2828   1.085       .  S
C2817      C2818   1.402       .  A
C2817      C2822   1.408       .  A
C2818      C2819   1.393       .  A
C2818      H2829   1.084       .  S
C2819      C2820   1.404       .  A
C2819      H2830   1.083       .  S
C2820      C2821   1.406       .  A
C2821      C2822   1.398       .  A
C2821      H2831   1.083       .  S
C2822      H2832   1.081       .  S
C2833      C2834   1.401       .  A
C2833      C2838   1.403       .  A
C2834      C2835   1.393       .  A
C2834      H2847   1.083       .  S
C2835      C2836   1.404       .  A
C2835      H2848   1.083       .  S
C2836      C2837   1.411       .  A
C2836      C2839   1.487       .  S
C2837      C2838   1.400       .  A
C2837      H2849   1.079       .  S
C2838      H2850   1.083       .  S
C2839      C2840   1.347       .  D
C2839      H2851   1.086       .  S
C2840      C2841   1.484       .  S
C2840      H2852   1.083       .  S
C2841      C2842   1.402       .  A
C2841      C2846   1.407       .  A
C2842      C2843   1.398       .  A
C2842      H2853   1.083       .  S
C2843      C2844   1.407       .  A
C2843      H2854   1.083       .  S
C2844      C2845   1.405       .  A
C2845      C2846   1.396       .  A
C2845      H2855   1.083       .  S
C2846      H2856   1.082       .  S
C2857      C2858   1.401   1_565  A
C2857      C2862   1.401   1_565  A
C2858      C2859   1.396       .  A
C2858      H2871   1.083       .  S
C2859      C2860   1.405       .  A
C2859      H2872   1.083       .  S
C2860      C2861   1.412       .  A
C2860      C2863   1.492       .  S
C2861      C2862   1.402       .  A
C2861      H2873   1.080       .  S
C2862      H2874   1.083   1_545  S
C2863      C2864   1.350       .  D
C2863      H2875   1.083       .  S
C2864      C2865   1.493       .  S
C2864      H2876   1.084       .  S
C2865      C2866   1.405       .  A
C2865      C2870   1.410       .  A
C2866      C2867   1.399       .  A
C2866      H2877   1.083       .  S
C2867      C2868   1.406       .  A
C2867      H2878   1.083       .  S
C2868      C2869   1.406       .  A
C2869      C2870   1.400       .  A
C2869      H2879   1.083       .  S
C2870      H2880   1.080       .  S
C2881      C2882   1.401       .  A
C2881      C2886   1.400       .  A
C2882      C2883   1.395       .  A
C2882      H2895   1.083       .  S
C2883      C2884   1.405       .  A
C2883      H2896   1.083       .  S
C2884      C2885   1.410       .  A
C2884      C2887   1.486       .  S
C2885      C2886   1.396       .  A
C2885      H2897   1.079       .  S
C2886      H2898   1.083   1_545  S
C2887      C2888   1.348       .  D
C2887      H2899   1.084       .  S
C2888      C2889   1.485       .  S
C2888      H2900   1.083       .  S
C2889      C2890   1.404       .  A
C2889      C2894   1.407       .  A
C2890      C2891   1.398       .  A
C2890      H2901   1.083       .  S
C2891      C2892   1.405       .  A
C2891      H2902   1.083       .  S
C2892      C2893   1.405       .  A
C2893      C2894   1.395       .  A
C2893      H2903   1.083       .  S
C2894      H2904   1.080       .  S
C2905      C2906   1.400       .  A
C2905      C2910   1.404       .  A
C2906      C2907   1.394       .  A
C2906      H2919   1.083       .  S
C2907      C2908   1.405       .  A
C2907      H2920   1.083       .  S
C2908      C2909   1.411       .  A
C2908      C2911   1.489       .  S
C2909      C2910   1.401       .  A
C2909      H2921   1.079       .  S
C2910      H2922   1.083       .  S
C2911      C2912   1.348       .  D
C2911      H2923   1.084       .  S
C2912      C2913   1.489       .  S
C2912      H2924   1.083       .  S
C2913      C2914   1.404       .  A
C2913      C2918   1.408       .  A
C2914      C2915   1.400       .  A
C2914      H2925   1.083       .  S
C2915      C2916   1.406       .  A
C2915      H2926   1.083       .  S
C2916      C2917   1.405       .  A
C2917      C2918   1.395       .  A
C2917      H2927   1.083       .  S
C2918      H2928   1.081       .  S
C2929      C2930   1.402       .  A
C2929      C2934   1.403       .  A
C2930      C2931   1.396       .  A
C2930      H2943   1.083   1_545  S
C2931      C2932   1.404       .  A
C2931      H2944   1.083       .  S
C2932      C2933   1.408       .  A
C2932      C2935   1.483       .  S
C2933      C2934   1.399       .  A
C2933      H2945   1.081       .  S
C2934      H2946   1.083       .  S
C2935      C2936   1.347       .  D
C2935      H2947   1.087       .  S
C2936      C2937   1.484       .  S
C2936      H2948   1.085       .  S
C2937      C2938   1.403       .  A
C2937      C2942   1.405       .  A
C2938      C2939   1.401       .  A
C2938      H2949   1.083       .  S
C2939      C2940   1.408       .  A
C2939      H2950   1.083       .  S
C2940      C2941   1.406       .  A
C2941      C2942   1.394       .  A
C2941      H2951   1.083       .  S
C2942      H2952   1.082       .  S
C2953      C2954   1.401       .  A
C2953      C2958   1.403       .  A
C2954      C2955   1.397       .  A
C2954      H2967   1.083       .  S
C2955      C2956   1.405       .  A
C2955      H2968   1.083       .  S
C2956      C2957   1.410       .  A
C2956      C2959   1.489       .  S
C2957      C2958   1.400       .  A
C2957      H2969   1.081       .  S
C2958      H2970   1.083       .  S
C2959      C2960   1.348       .  D
C2959      H2971   1.086       .  S
C2960      C2961   1.487       .  S
C2960      H2972   1.084       .  S
C2961      C2962   1.403       .  A
C2961      C2966   1.407       .  A
C2962      C2963   1.400       .  A
C2962      H2973   1.083       .  S
C2963      C2964   1.407       .  A
C2963      H2974   1.083       .  S
C2964      C2965   1.407       .  A
C2965      C2966   1.398       .  A
C2965      H2975   1.083       .  S
C2966      H2976   1.082       .  S
C2977      C2978   1.401       .  A
C2977      C2982   1.404       .  A
C2978      C2979   1.395       .  A
C2978      H2991   1.083   1_545  S
C2979      C2980   1.405       .  A
C2979      H2992   1.083       .  S
C2980      C2981   1.411       .  A
C2980      C2983   1.490       .  S
C2981      C2982   1.401       .  A
C2981      H2993   1.080       .  S
C2982      H2994   1.083       .  S
C2983      C2984   1.349       .  D
C2983      H2995   1.083       .  S
C2984      C2985   1.492       .  S
C2984      H2996   1.084       .  S
C2985      C2986   1.405       .  A
C2985      C2990   1.409       .  A
C2986      C2987   1.400       .  A
C2986      H2997   1.083       .  S
C2987      C2988   1.406       .  A
C2987      H2998   1.083       .  S
C2988      C2989   1.405       .  A
C2989      C2990   1.396       .  A
C2989      H2999   1.083       .  S
C2990      H3000   1.080       .  S
C3001      C3002   1.403       .  A
C3001      C3006   1.404       .  A
C3002      C3003   1.400       .  A
C3002      H3015   1.083       .  S
C3003      C3004   1.405       .  A
C3003      H3016   1.083       .  S
C3004      C3005   1.408       .  A
C3004      C3007   1.488       .  S
C3005      C3006   1.397       .  A
C3005      H3017   1.082       .  S
C3006      H3018   1.083       .  S
C3007      C3008   1.348       .  D
C3007      H3019   1.085       .  S
C3008      C3009   1.488       .  S
C3008      H3020   1.086       .  S
C3009      C3010   1.403       .  A
C3009      C3014   1.408       .  A
C3010      C3011   1.397       .  A
C3010      H3021   1.083       .  S
C3011      C3012   1.406       .  A
C3011      H3022   1.083       .  S
C3012      C3013   1.407       .  A
C3013      C3014   1.402       .  A
C3013      H3023   1.083       .  S
C3014      H3024   1.081       .  S
C3025      C3026   1.403       .  A
C3025      C3030   1.403       .  A
C3026      C3027   1.398       .  A
C3026      H3039   1.083       .  S
C3027      C3028   1.405       .  A
C3027      H3040   1.083       .  S
C3028      C3029   1.408       .  A
C3028      C3031   1.485       .  S
C3029      C3030   1.395       .  A
C3029      H3041   1.081       .  S
C3030      H3042   1.083       .  S
C3031      C3032   1.348       .  D
C3031      H3043   1.083       .  S
C3032      C3033   1.487       .  S
C3032      H3044   1.085       .  S
C3033      C3034   1.404       .  A
C3033      C3038   1.409       .  A
C3034      C3035   1.396       .  A
C3034      H3045   1.084       .  S
C3035      C3036   1.406       .  A
C3035      H3046   1.083       .  S
C3036      C3037   1.404       .  A
C3037      C3038   1.397       .  A
C3037      H3047   1.083       .  S
C3038      H3048   1.080       .  S
C3049      C3050   1.402       .  A
C3049      C3054   1.402       .  A
C3050      C3051   1.397       .  A
C3050      H3063   1.083   1_545  S
C3051      C3052   1.405       .  A
C3051      H3064   1.083       .  S
C3052      C3053   1.409       .  A
C3052      C3055   1.486       .  S
C3053      C3054   1.397       .  A
C3053      H3065   1.081       .  S
C3054      H3066   1.083       .  S
C3055      C3056   1.347       .  D
C3055      H3067   1.086       .  S
C3056      C3057   1.484       .  S
C3056      H3068   1.085       .  S
C3057      C3058   1.403       .  A
C3057      C3062   1.406       .  A
C3058      C3059   1.398       .  A
C3058      H3069   1.083       .  S
C3059      C3060   1.406       .  A
C3059      H3070   1.083       .  S
C3060      C3061   1.407       .  A
C3061      C3062   1.397       .  A
C3061      H3071   1.083       .  S
C3062      H3072   1.082       .  S
C3073      C3074   1.403       .  A
C3073      C3078   1.403   1_545  A
C3074      C3075   1.400       .  A
C3074      H3087   1.083       .  S
C3075      C3076   1.405       .  A
C3075      H3088   1.083       .  S
C3076      C3077   1.411       .  A
C3076      C3079   1.492       .  S
C3077      C3078   1.399   1_545  A
C3077      H3089   1.081       .  S
C3078      H3090   1.083       .  S
C3079      C3080   1.348       .  D
C3079      H3091   1.084       .  S
C3080      C3081   1.491       .  S
C3080      H3092   1.085       .  S
C3081      C3082   1.402       .  A
C3081      C3086   1.412       .  A
C3082      C3083   1.392       .  A
C3082      H3093   1.084       .  S
C3083      C3084   1.406       .  A
C3083      H3094   1.083       .  S
C3084      C3085   1.407       .  A
C3085      C3086   1.406       .  A
C3085      H3095   1.083       .  S
C3086      H3096   1.080       .  S
C3097      C3098   1.403       .  A
C3097      C3102   1.403       .  A
C3098      C3099   1.398       .  A
C3098      H3111   1.083       .  S
C3099      C3100   1.404       .  A
C3099      H3112   1.083       .  S
C3100      C3101   1.408       .  A
C3100      C3103   1.484       .  S
C3101      C3102   1.395       .  A
C3101      H3113   1.082       .  S
C3102      H3114   1.083       .  S
C3103      C3104   1.347       .  D
C3103      H3115   1.084       .  S
C3104      C3105   1.484       .  S
C3104      H3116   1.086       .  S
C3105      C3106   1.403       .  A
C3105      C3110   1.408       .  A
C3106      C3107   1.394       .  A
C3106      H3117   1.084       .  S
C3107      C3108   1.404       .  A
C3107      H3118   1.083       .  S
C3108      C3109   1.407       .  A
C3109      C3110   1.399       .  A
C3109      H3119   1.083       .  S
C3110      H3120   1.081       .  S
C3121      C3122   1.407       .  A
C3121      C3126   1.406       .  A
C3122      C3123   1.399       .  A
C3122      H3135   1.083       .  S
C3123      C3124   1.402       .  A
C3123      H3136   1.083       .  S
C3124      C3125   1.407       .  A
C3124      C3127   1.485       .  S
C3125      C3126   1.397       .  A
C3125      H3137   1.082       .  S
C3126      H3138   1.083       .  S
C3127      C3128   1.346       .  D
C3127      H3139   1.085       .  S
C3128      C3129   1.486       .  S
C3128      H3140   1.086       .  S
C3129      C3130   1.404       .  A
C3129      C3134   1.410       .  A
C3130      C3131   1.395       .  A
C3130      H3141   1.083       .  S
C3131      C3132   1.402       .  A
C3131      H3142   1.083       .  S
C3132      C3133   1.404       .  A
C3133      C3134   1.401       .  A
C3133      H3143   1.083       .  S
C3134      H3144   1.081       .  S
C3145      C3146   1.401       .  A
C3145      C3150   1.402       .  A
C3146      C3147   1.395       .  A
C3146      H3159   1.083       .  S
C3147      C3148   1.405       .  A
C3147      H3160   1.083       .  S
C3148      C3149   1.412       .  A
C3148      C3151   1.490       .  S
C3149      C3150   1.400       .  A
C3149      H3161   1.079       .  S
C3150      H3162   1.083       .  S
C3151      C3152   1.347       .  D
C3151      H3163   1.086       .  S
C3152      C3153   1.486       .  S
C3152      H3164   1.082       .  S
C3153      C3154   1.402       .  A
C3153      C3158   1.408       .  A
C3154      C3155   1.397       .  A
C3154      H3165   1.083       .  S
C3155      C3156   1.407       .  A
C3155      H3166   1.083       .  S
C3156      C3157   1.405       .  A
C3157      C3158   1.398       .  A
C3157      H3167   1.083       .  S
C3158      H3168   1.082       .  S
C3169      C3170   1.407       .  A
C3169      C3174   1.405       .  A
C3170      C3171   1.399       .  A
C3170      H3183   1.083       .  S
C3171      C3172   1.403       .  A
C3171      H3184   1.083       .  S
C3172      C3173   1.407       .  A
C3172      C3175   1.484       .  S
C3173      C3174   1.395       .  A
C3173      H3185   1.082       .  S
C3174      H3186   1.083       .  S
C3175      C3176   1.346       .  D
C3175      H3187   1.085       .  S
C3176      C3177   1.483       .  S
C3176      H3188   1.086       .  S
C3177      C3178   1.403       .  A
C3177      C3182   1.409       .  A
C3178      C3179   1.395       .  A
C3178      H3189   1.083       .  S
C3179      C3180   1.403       .  A
C3179      H3190   1.083       .  S
C3180      C3181   1.403       .  A
C3181      C3182   1.399       .  A
C3181      H3191   1.083       .  S
C3182      H3192   1.081       .  S
C3193      C3194   1.406       .  A
C3193      C3198   1.406       .  A
C3194      C3195   1.396       .  A
C3194      H3207   1.083       .  S
C3195      C3196   1.403       .  A
C3195      H3208   1.084       .  S
C3196      C3197   1.408       .  A
C3196      C3199   1.486       .  S
C3197      C3198   1.400       .  A
C3197      H3209   1.081       .  S
C3198      H3210   1.083       .  S
C3199      C3200   1.347       .  D
C3199      H3211   1.086       .  S
C3200      C3201   1.486       .  S
C3200      H3212   1.085       .  S
C3201      C3202   1.405       .  A
C3201      C3206   1.408       .  A
C3202      C3203   1.400       .  A
C3202      H3213   1.083       .  S
C3203      C3204   1.403       .  A
C3203      H3214   1.083       .  S
C3204      C3205   1.401       .  A
C3205      C3206   1.395       .  A
C3205      H3215   1.083       .  S
C3206      H3216   1.082       .  S
C3217      C3218   1.400       .  A
C3217      C3222   1.402   1_565  A
C3218      C3219   1.394   1_565  A
C3218      H3231   1.083       .  S
C3219      C3220   1.405       .  A
C3219      H3232   1.083       .  S
C3220      C3221   1.412       .  A
C3220      C3223   1.489       .  S
C3221      C3222   1.400       .  A
C3221      H3233   1.079       .  S
C3222      H3234   1.083       .  S
C3223      C3224   1.347       .  D
C3223      H3235   1.085       .  S
C3224      C3225   1.487       .  S
C3224      H3236   1.083       .  S
C3225      C3226   1.403       .  A
C3225      C3230   1.409       .  A
C3226      C3227   1.398       .  A
C3226      H3237   1.083       .  S
C3227      C3228   1.407       .  A
C3227      H3238   1.083       .  S
C3228      C3229   1.405       .  A
C3229      C3230   1.397       .  A
C3229      H3239   1.083       .  S
C3230      H3240   1.081       .  S
C3241      C3242   1.406       .  A
C3241      C3246   1.405       .  A
C3242      C3243   1.398       .  A
C3242      H3255   1.083       .  S
C3243      C3244   1.403       .  A
C3243      H3256   1.083       .  S
C3244      C3245   1.408       .  A
C3244      C3247   1.486       .  S
C3245      C3246   1.396       .  A
C3245      H3257   1.081       .  S
C3246      H3258   1.083       .  S
C3247      C3248   1.347       .  D
C3247      H3259   1.082       .  S
C3248      C3249   1.489       .  S
C3248      H3260   1.085       .  S
C3249      C3250   1.404       .  A
C3249      C3254   1.412       .  A
C3250      C3251   1.394       .  A
C3250      H3261   1.083       .  S
C3251      C3252   1.401       .  A
C3251      H3262   1.083       .  S
C3252      C3253   1.402       .  A
C3253      C3254   1.399       .  A
C3253      H3263   1.083       .  S
C3254      H3264   1.079       .  S
C3265      C3266   1.406       .  A
C3265      C3270   1.407       .  A
C3266      C3267   1.398       .  A
C3266      H3279   1.083       .  S
C3267      C3268   1.403       .  A
C3267      H3280   1.083       .  S
C3268      C3269   1.408       .  A
C3268      C3271   1.488       .  S
C3269      C3270   1.398       .  A
C3269      H3281   1.081       .  S
C3270      H3282   1.083       .  S
C3271      C3272   1.347       .  D
C3271      H3283   1.084       .  S
C3272      C3273   1.488       .  S
C3272      H3284   1.084       .  S
C3273      C3274   1.404       .  A
C3273      C3278   1.411       .  A
C3274      C3275   1.395       .  A
C3274      H3285   1.083       .  S
C3275      C3276   1.401       .  A
C3275      H3286   1.083   1_545  S
C3276      C3277   1.401       .  A
C3277      C3278   1.399       .  A
C3277      H3287   1.083       .  S
C3278      H3288   1.080       .  S
C3289      C3290   1.406       .  A
C3289      C3294   1.408       .  A
C3290      C3291   1.391       .  A
C3290      H3303   1.083       .  S
C3291      C3292   1.400       .  A
C3291      H3304   1.084       .  S
C3292      C3293   1.409       .  A
C3292      C3295   1.484       .  S
C3293      C3294   1.405       .  A
C3293      H3305   1.082       .  S
C3294      H3306   1.083       .  S
C3295      C3296   1.346       .  D
C3295      H3307   1.086       .  S
C3296      C3297   1.487       .  S
C3296      H3308   1.085       .  S
C3297      C3298   1.409       .  A
C3297      C3302   1.404       .  A
C3298      C3299   1.395       .  A
C3298      H3309   1.082       .  S
C3299      C3300   1.402       .  A
C3299      H3310   1.083       .  S
C3300      C3301   1.404       .  A
C3301      C3302   1.400       .  A
C3301      H3311   1.083       .  S
C3302      H3312   1.083       .  S
C3313      C3314   1.402       .  A
C3313      C3318   1.404       .  A
C3314      C3315   1.394       .  A
C3314      H3327   1.083       .  S
C3315      C3316   1.403       .  A
C3315      H3328   1.083       .  S
C3316      C3317   1.409       .  A
C3316      C3319   1.482       .  S
C3317      C3318   1.398       .  A
C3317      H3329   1.081       .  S
C3318      H3330   1.083       .  S
C3319      C3320   1.345       .  D
C3319      H3331   1.086       .  S
C3320      C3321   1.483       .  S
C3320      H3332   1.085       .  S
C3321      C3322   1.402       .  A
C3321      C3326   1.407       .  A
C3322      C3323   1.397       .  A
C3322      H3333   1.083       .  S
C3323      C3324   1.407       .  A
C3323      H3334   1.083       .  S
C3324      C3325   1.405       .  A
C3325      C3326   1.395       .  A
C3325      H3335   1.083       .  S
C3326      H3336   1.082       .  S
C3337      C3338   1.404       .  A
C3337      C3342   1.404       .  A
C3338      C3339   1.398       .  A
C3338      H3351   1.083       .  S
C3339      C3340   1.404       .  A
C3339      H3352   1.083       .  S
C3340      C3341   1.407       .  A
C3340      C3343   1.483       .  S
C3341      C3342   1.394       .  A
C3341      H3353   1.082       .  S
C3342      H3354   1.083       .  S
C3343      C3344   1.347       .  D
C3343      H3355   1.084       .  S
C3344      C3345   1.484       .  S
C3344      H3356   1.085       .  S
C3345      C3346   1.402       .  A
C3345      C3350   1.408       .  A
C3346      C3347   1.395       .  A
C3346      H3357   1.084       .  S
C3347      C3348   1.406       .  A
C3347      H3358   1.083       .  S
C3348      C3349   1.405       .  A
C3349      C3350   1.399       .  A
C3349      H3359   1.083       .  S
C3350      H3360   1.081       .  S
C3361      C3362   1.404       .  A
C3361      C3366   1.402       .  A
C3362      C3363   1.400       .  A
C3362      H3375   1.083       .  S
C3363      C3364   1.406       .  A
C3363      H3376   1.083       .  S
C3364      C3365   1.409       .  A
C3364      C3367   1.489       .  S
C3365      C3366   1.394       .  A
C3365      H3377   1.080       .  S
C3366      H3378   1.083       .  S
C3367      C3368   1.347       .  D
C3367      H3379   1.085       .  S
C3368      C3369   1.482       .  S
C3368      H3380   1.083       .  S
C3369      C3370   1.401       .  A
C3369      C3374   1.408       .  A
C3370      C3371   1.392       .  A
C3370      H3381   1.084       .  S
C3371      C3372   1.404       .  A
C3371      H3382   1.083       .  S
C3372      C3373   1.406       .  A
C3373      C3374   1.402       .  A
C3373      H3383   1.083       .  S
C3374      H3384   1.082       .  S
C3385      C3386   1.407       .  A
C3385      C3390   1.405       .  A
C3386      C3387   1.397       .  A
C3386      H3399   1.083       .  S
C3387      C3388   1.402       .  A
C3387      H3400   1.083       .  S
C3388      C3389   1.408       .  A
C3388      C3391   1.485       .  S
C3389      C3390   1.398       .  A
C3389      H3401   1.082       .  S
C3390      H3402   1.083       .  S
C3391      C3392   1.346       .  D
C3391      H3403   1.085       .  S
C3392      C3393   1.485       .  S
C3392      H3404   1.086       .  S
C3393      C3394   1.404       .  A
C3393      C3398   1.410       .  A
C3394      C3395   1.395       .  A
C3394      H3405   1.083       .  S
C3395      C3396   1.401       .  A
C3395      H3406   1.083       .  S
C3396      C3397   1.401       .  A
C3397      C3398   1.400       .  A
C3397      H3407   1.083       .  S
C3398      H3408   1.081       .  S
C3409      C3410   1.406       .  A
C3409      C3414   1.406       .  A
C3410      C3411   1.396       .  A
C3410      H3423   1.083       .  S
C3411      C3412   1.404       .  A
C3411      H3424   1.084       .  S
C3412      C3413   1.410       .  A
C3412      C3415   1.491       .  S
C3413      C3414   1.401       .  A
C3413      H3425   1.080       .  S
C3414      H3426   1.083       .  S
C3415      C3416   1.349       .  D
C3415      H3427   1.085       .  S
C3416      C3417   1.489       .  S
C3416      H3428   1.083       .  S
C3417      C3418   1.405       .  A
C3417      C3422   1.408       .  A
C3418      C3419   1.400       .  A
C3418      H3429   1.083       .  S
C3419      C3420   1.403       .  A
C3419      H3430   1.083       .  S
C3420      C3421   1.403       .  A
C3421      C3422   1.396       .  A
C3421      H3431   1.083       .  S
C3422      H3432   1.081       .  S
C3433      C3434   1.404       .  A
C3433      C3438   1.403       .  A
C3434      C3435   1.399       .  A
C3434      H3447   1.083       .  S
C3435      C3436   1.404       .  A
C3435      H3448   1.083       .  S
C3436      C3437   1.410       .  A
C3436      C3439   1.490       .  S
C3437      C3438   1.399       .  A
C3437      H3449   1.081       .  S
C3438      H3450   1.083       .  S
C3439      C3440   1.349       .  D
C3439      H3451   1.083       .  S
C3440      C3441   1.492       .  S
C3440      H3452   1.085       .  S
C3441      C3442   1.404       .  A
C3441      C3446   1.410       .  A
C3442      C3443   1.396       .  A
C3442      H3453   1.084       .  S
C3443      C3444   1.406       .  A
C3443      H3454   1.083       .  S
C3444      C3445   1.406       .  A
C3445      C3446   1.402       .  A
C3445      H3455   1.083       .  S
C3446      H3456   1.080       .  S
C3457      C3458   1.403       .  A
C3457      C3462   1.401       .  A
C3458      C3459   1.400       .  A
C3458      H3471   1.083       .  S
C3459      C3460   1.405       .  A
C3459      H3472   1.083       .  S
C3460      C3461   1.408       .  A
C3460      C3463   1.486       .  S
C3461      C3462   1.395       .  A
C3461      H3473   1.082       .  S
C3462      H3474   1.083       .  S
C3463      C3464   1.347       .  D
C3463      H3475   1.084       .  S
C3464      C3465   1.487       .  S
C3464      H3476   1.086       .  S
C3465      C3466   1.403       .  A
C3465      C3470   1.409       .  A
C3466      C3467   1.396       .  A
C3466      H3477   1.084       .  S
C3467      C3468   1.404       .  A
C3467      H3478   1.083       .  S
C3468      C3469   1.406       .  A
C3469      C3470   1.401       .  A
C3469      H3479   1.083       .  S
C3470      H3480   1.081       .  S
C3481      C3482   1.404       .  A
C3481      C3486   1.402       .  A
C3482      C3483   1.402       .  A
C3482      H3495   1.083       .  S
C3483      C3484   1.406       .  A
C3483      H3496   1.083       .  S
C3484      C3485   1.407       .  A
C3484      C3487   1.488       .  S
C3485      C3486   1.392       .  A
C3485      H3497   1.082       .  S
C3486      H3498   1.084       .  S
C3487      C3488   1.349       .  D
C3487      H3499   1.083       .  S
C3488      C3489   1.488       .  S
C3488      H3500   1.085       .  S
C3489      C3490   1.404       .  A
C3489      C3494   1.409       .  A
C3490      C3491   1.393       .  A
C3490      H3501   1.084       .  S
C3491      C3492   1.404       .  A
C3491      H3502   1.083       .  S
C3492      C3493   1.406       .  A
C3493      C3494   1.402       .  A
C3493      H3503   1.083       .  S
C3494      H3504   1.080       .  S
C3505      C3506   1.402       .  A
C3505      C3510   1.400       .  A
C3506      C3507   1.399       .  A
C3506      H3519   1.083       .  S
C3507      C3508   1.404       .  A
C3507      H3520   1.083       .  S
C3508      C3509   1.408       .  A
C3508      C3511   1.483       .  S
C3509      C3510   1.393       .  A
C3509      H3521   1.082       .  S
C3510      H3522   1.083       .  S
C3511      C3512   1.345       .  D
C3511      H3523   1.085       .  S
C3512      C3513   1.481       .  S
C3512      H3524   1.086       .  S
C3513      C3514   1.401       .  A
C3513      C3518   1.407       .  A
C3514      C3515   1.393       .  A
C3514      H3525   1.084       .  S
C3515      C3516   1.405       .  A
C3515      H3526   1.083       .  S
C3516      C3517   1.407       .  A
C3517      C3518   1.400       .  A
C3517      H3527   1.083       .  S
C3518      H3528   1.082       .  S
C3529      C3530   1.406       .  A
C3529      C3534   1.406       .  A
C3530      C3531   1.396       .  A
C3530      H3543   1.083       .  S
C3531      C3532   1.403       .  A
C3531      H3544   1.084       .  S
C3532      C3533   1.409       .  A
C3532      C3535   1.489       .  S
C3533      C3534   1.401       .  A
C3533      H3545   1.080       .  S
C3534      H3546   1.083       .  S
C3535      C3536   1.348       .  D
C3535      H3547   1.085       .  S
C3536      C3537   1.487       .  S
C3536      H3548   1.084       .  S
C3537      C3538   1.405       .  A
C3537      C3542   1.408       .  A
C3538      C3539   1.398       .  A
C3538      H3549   1.083       .  S
C3539      C3540   1.402       .  A
C3539      H3550   1.083       .  S
C3540      C3541   1.403       .  A
C3541      C3542   1.397       .  A
C3541      H3551   1.083       .  S
C3542      H3552   1.081       .  S
C3553      C3554   1.402       .  A
C3553      C3558   1.403       .  A
C3554      C3555   1.396       .  A
C3554      H3567   1.083       .  S
C3555      C3556   1.404       .  A
C3555      H3568   1.083       .  S
C3556      C3557   1.408       .  A
C3556      C3559   1.483       .  S
C3557      C3558   1.397       .  A
C3557      H3569   1.081       .  S
C3558      H3570   1.083       .  S
C3559      C3560   1.347       .  D
C3559      H3571   1.086       .  S
C3560      C3561   1.483       .  S
C3560      H3572   1.085       .  S
C3561      C3562   1.402       .  A
C3561      C3566   1.406       .  A
C3562      C3563   1.398       .  A
C3562      H3573   1.083       .  S
C3563      C3564   1.407       .  A
C3563      H3574   1.083       .  S
C3564      C3565   1.405       .  A
C3565      C3566   1.396       .  A
C3565      H3575   1.083       .  S
C3566      H3576   1.082       .  S
C3577      C3578   1.400       .  A
C3577      C3582   1.401       .  A
C3578      C3579   1.394       .  A
C3578      H3591   1.083       .  S
C3579      C3580   1.404       .  A
C3579      H3592   1.083       .  S
C3580      C3581   1.410       .  A
C3580      C3583   1.485       .  S
C3581      C3582   1.398       .  A
C3581      H3593   1.081       .  S
C3582      H3594   1.083       .  S
C3583      C3584   1.346       .  D
C3583      H3595   1.085       .  S
C3584      C3585   1.485       .  S
C3584      H3596   1.084       .  S
C3585      C3586   1.402       .  A
C3585      C3590   1.409       .  A
C3586      C3587   1.396       .  A
C3586      H3597   1.083       .  S
C3587      C3588   1.407       .  A
C3587      H3598   1.083       .  S
C3588      C3589   1.405       .  A
C3589      C3590   1.397       .  A
C3589      H3599   1.083       .  S
C3590      H3600   1.081       .  S
C3601      C3602   1.402       .  A
C3601      C3606   1.403       .  A
C3602      C3603   1.399       .  A
C3602      H3615   1.083       .  S
C3603      C3604   1.405       .  A
C3603      H3616   1.083       .  S
C3604      C3605   1.411       .  A
C3604      C3607   1.491       .  S
C3605      C3606   1.400       .  A
C3605      H3617   1.081       .  S
C3606      H3618   1.083       .  S
C3607      C3608   1.348       .  D
C3607      H3619   1.084       .  S
C3608      C3609   1.491       .  S
C3608      H3620   1.085       .  S
C3609      C3610   1.402       .  A
C3609      C3614   1.411       .  A
C3610      C3611   1.395       .  A
C3610      H3621   1.084       .  S
C3611      C3612   1.407       .  A
C3611      H3622   1.083       .  S
C3612      C3613   1.407       .  A
C3613      C3614   1.404       .  A
C3613      H3623   1.083       .  S
C3614      H3624   1.081       .  S
C3625      C3626   1.404       .  A
C3625      C3630   1.404       .  A
C3626      C3627   1.401       .  A
C3626      H3639   1.083       .  S
C3627      C3628   1.405       .  A
C3627      H3640   1.083       .  S
C3628      C3629   1.408       .  A
C3628      C3631   1.488       .  S
C3629      C3630   1.395       .  A
C3629      H3641   1.082       .  S
C3630      H3642   1.083       .  S
C3631      C3632   1.348       .  D
C3631      H3643   1.085       .  S
C3632      C3633   1.486       .  S
C3632      H3644   1.085       .  S
C3633      C3634   1.402       .  A
C3633      C3638   1.409       .  A
C3634      C3635   1.394       .  A
C3634      H3645   1.084       .  S
C3635      C3636   1.406       .  A
C3635      H3646   1.083       .  S
C3636      C3637   1.407       .  A
C3637      C3638   1.403       .  A
C3637      H3647   1.083       .  S
C3638      H3648   1.081       .  S
C3649      C3650   1.400       .  A
C3649      C3654   1.402       .  A
C3650      C3651   1.393       .  A
C3650      H3663   1.083       .  S
C3651      C3652   1.404       .  A
C3651      H3664   1.083       .  S
C3652      C3653   1.411       .  A
C3652      C3655   1.486       .  S
C3653      C3654   1.400       .  A
C3653      H3665   1.080       .  S
C3654      H3666   1.083       .  S
C3655      C3656   1.347       .  D
C3655      H3667   1.085       .  S
C3656      C3657   1.486       .  S
C3656      H3668   1.083       .  S
C3657      C3658   1.404       .  A
C3657      C3662   1.407       .  A
C3658      C3659   1.400       .  A
C3658      H3669   1.083       .  S
C3659      C3660   1.406       .  A
C3659      H3670   1.083       .  S
C3660      C3661   1.405       .  A
C3661      C3662   1.393       .  A
C3661      H3671   1.083       .  S
C3662      H3672   1.081       .  S
C3673      C3674   1.401       .  A
C3673      C3678   1.402       .  A
C3674      C3675   1.395       .  A
C3674      H3687   1.083       .  S
C3675      C3676   1.405       .  A
C3675      H3688   1.083       .  S
C3676      C3677   1.411       .  A
C3676      C3679   1.489       .  S
C3677      C3678   1.400       .  A
C3677      H3689   1.079       .  S
C3678      H3690   1.083       .  S
C3679      C3680   1.349       .  D
C3679      H3691   1.085       .  S
C3680      C3681   1.487       .  S
C3680      H3692   1.083       .  S
C3681      C3682   1.404       .  A
C3681      C3686   1.407       .  A
C3682      C3683   1.400       .  A
C3682      H3693   1.083       .  S
C3683      C3684   1.407       .  A
C3683      H3694   1.083       .  S
C3684      C3685   1.406       .  A
C3685      C3686   1.395       .  A
C3685      H3695   1.083       .  S
C3686      H3696   1.082       .  S
C3697      C3698   1.402       .  A
C3697      C3702   1.404       .  A
C3698      C3699   1.395       .  A
C3698      H3711   1.083       .  S
C3699      C3700   1.404       .  A
C3699      H3712   1.083       .  S
C3700      C3701   1.409       .  A
C3700      C3703   1.485       .  S
C3701      C3702   1.401       .  A
C3701      H3713   1.081       .  S
C3702      H3714   1.083       .  S
C3703      C3704   1.348       .  D
C3703      H3715   1.086       .  S
C3704      C3705   1.487       .  S
C3704      H3716   1.085       .  S
C3705      C3706   1.405       .  A
C3705      C3710   1.406       .  A
C3706      C3707   1.402       .  A
C3706      H3717   1.083       .  S
C3707      C3708   1.407       .  A
C3707      H3718   1.083       .  S
C3708      C3709   1.405       .  A
C3709      C3710   1.393       .  A
C3709      H3719   1.083       .  S
C3710      H3720   1.082       .  S
C3721      C3722   1.403       .  A
C3721      C3726   1.405       .  A
C3722      C3723   1.396       .  A
C3722      H3735   1.083       .  S
C3723      C3724   1.404       .  A
C3723      H3736   1.083       .  S
C3724      C3725   1.410       .  A
C3724      C3727   1.488       .  S
C3725      C3726   1.400       .  A
C3725      H3737   1.081       .  S
C3726      H3738   1.083       .  S
C3727      C3728   1.347       .  D
C3727      H3739   1.085       .  S
C3728      C3729   1.487       .  S
C3728      H3740   1.084       .  S
C3729      C3730   1.403       .  A
C3729      C3734   1.408       .  A
C3730      C3731   1.399       .  A
C3730      H3741   1.083       .  S
C3731      C3732   1.406       .  A
C3731      H3742   1.083       .  S
C3732      C3733   1.406       .  A
C3733      C3734   1.397       .  A
C3733      H3743   1.083       .  S
C3734      H3744   1.082       .  S
C3745      C3746   1.401       .  A
C3745      C3750   1.402       .  A
C3746      C3747   1.397       .  A
C3746      H3759   1.083       .  S
C3747      C3748   1.404       .  A
C3747      H3760   1.083       .  S
C3748      C3749   1.409       .  A
C3748      C3751   1.483       .  S
C3749      C3750   1.396       .  A
C3749      H3761   1.081       .  S
C3750      H3762   1.083       .  S
C3751      C3752   1.346       .  D
C3751      H3763   1.082       .  S
C3752      C3753   1.488       .  S
C3752      H3764   1.085       .  S
C3753      C3754   1.402       .  A
C3753      C3758   1.411       .  A
C3754      C3755   1.393       .  A
C3754      H3765   1.084       .  S
C3755      C3756   1.406       .  A
C3755      H3766   1.083       .  S
C3756      C3757   1.404       .  A
C3757      C3758   1.400       .  A
C3757      H3767   1.083       .  S
C3758      H3768   1.079       .  S
C3769      C3770   1.402       .  A
C3769      C3774   1.399       .  A
C3770      C3771   1.402       .  A
C3770      H3783   1.083       .  S
C3771      C3772   1.407       .  A
C3771      H3784   1.083       .  S
C3772      C3773   1.410       .  A
C3772      C3775   1.489       .  S
C3773      C3774   1.393       .  A
C3773      H3785   1.080       .  S
C3774      H3786   1.084       .  S
C3775      C3776   1.347       .  D
C3775      H3787   1.086       .  S
C3776      C3777   1.480       .  S
C3776      H3788   1.084       .  S
C3777      C3778   1.401       .  A
C3777      C3782   1.406       .  A
C3778      C3779   1.394       .  A
C3778      H3789   1.084       .  S
C3779      C3780   1.405       .  A
C3779      H3790   1.083       .  S
C3780      C3781   1.408       .  A
C3781      C3782   1.401       .  A
C3781      H3791   1.083       .  S
C3782      H3792   1.082       .  S
C3793      C3794   1.405       .  A
C3793      C3798   1.409       .  A
C3794      C3795   1.394       .  A
C3794      H3807   1.083       .  S
C3795      C3796   1.403       .  A
C3795      H3808   1.084       .  S
C3796      C3797   1.410       .  A
C3796      C3799   1.492       .  S
C3797      C3798   1.406       .  A
C3797      H3809   1.081       .  S
C3798      H3810   1.083       .  S
C3799      C3800   1.349       .  D
C3799      H3811   1.085       .  S
C3800      C3801   1.494       .  S
C3800      H3812   1.084       .  S
C3801      C3802   1.406       .  A
C3801      C3806   1.410       .  A
C3802      C3803   1.403       .  A
C3802      H3813   1.083       .  S
C3803      C3804   1.405       .  A
C3803      H3814   1.083       .  S
C3804      C3805   1.403       .  A
C3805      C3806   1.398       .  A
C3805      H3815   1.083       .  S
C3806      H3816   1.081       .  S
C3817      C3818   1.401       .  A
C3817      C3822   1.403       .  A
C3818      C3819   1.396       .  A
C3818      H3831   1.083       .  S
C3819      C3820   1.406       .  A
C3819      H3832   1.083       .  S
C3820      C3821   1.413       .  A
C3820      C3823   1.496       .  S
C3821      C3822   1.404       .  A
C3821      H3833   1.079       .  S
C3822      H3834   1.083       .  S
C3823      C3824   1.350       .  D
C3823      H3835   1.083       .  S
C3824      C3825   1.496       .  S
C3824      H3836   1.083       .  S
C3825      C3826   1.404       .  A
C3825      C3830   1.411       .  A
C3826      C3827   1.399       .  A
C3826      H3837   1.083       .  S
C3827      C3828   1.407       .  A
C3827      H3838   1.083       .  S
C3828      C3829   1.405       .  A
C3829      C3830   1.401       .  A
C3829      H3839   1.083       .  S
C3830      H3840   1.080       .  S
C3841      C3842   1.403       .  A
C3841      C3846   1.404       .  A
C3842      C3843   1.396       .  A
C3842      H3855   1.083       .  S
C3843      C3844   1.404       .  A
C3843      H3856   1.083       .  S
C3844      C3845   1.408       .  A
C3844      C3847   1.485       .  S
C3845      C3846   1.399       .  A
C3845      H3857   1.081       .  S
C3846      H3858   1.083       .  S
C3847      C3848   1.348       .  D
C3847      H3859   1.085       .  S
C3848      C3849   1.487       .  S
C3848      H3860   1.085       .  S
C3849      C3850   1.404       .  A
C3849      C3854   1.407       .  A
C3850      C3851   1.400       .  A
C3850      H3861   1.083       .  S
C3851      C3852   1.407       .  A
C3851      H3862   1.083       .  S
C3852      C3853   1.405       .  A
C3853      C3854   1.394       .  A
C3853      H3863   1.083       .  S
C3854      H3864   1.081       .  S
C3865      C3866   1.408       .  A
C3865      C3870   1.405       .  A
C3866      C3867   1.399       .  A
C3866      H3879   1.083       .  S
C3867      C3868   1.402       .  A
C3867      H3880   1.083       .  S
C3868      C3869   1.409       .  A
C3868      C3871   1.489       .  S
C3869      C3870   1.398       .  A
C3869      H3881   1.081       .  S
C3870      H3882   1.083       .  S
C3871      C3872   1.347       .  D
C3871      H3883   1.084       .  S
C3872      C3873   1.489       .  S
C3872      H3884   1.085       .  S
C3873      C3874   1.404       .  A
C3873      C3878   1.411       .  A
C3874      C3875   1.394       .  A
C3874      H3885   1.083       .  S
C3875      C3876   1.401       .  A
C3875      H3886   1.083       .  S
C3876      C3877   1.404       .  A
C3877      C3878   1.402       .  A
C3877      H3887   1.083       .  S
C3878      H3888   1.080       .  S
C3889      C3890   1.407       .  A
C3889      C3894   1.405       .  A
C3890      C3891   1.396       .  A
C3890      H3903   1.083       .  S
C3891      C3892   1.401       .  A
C3891      H3904   1.083       .  S
C3892      C3893   1.407       .  A
C3892      C3895   1.482       .  S
C3893      C3894   1.396       .  A
C3893      H3905   1.082       .  S
C3894      H3906   1.083       .  S
C3895      C3896   1.346       .  D
C3895      H3907   1.082       .  S
C3896      C3897   1.488       .  S
C3896      H3908   1.086       .  S
C3897      C3898   1.405       .  A
C3897      C3902   1.411       .  A
C3898      C3899   1.395       .  A
C3898      H3909   1.083       .  S
C3899      C3900   1.401       .  A
C3899      H3910   1.083       .  S
C3900      C3901   1.400       .  A
C3901      C3902   1.398       .  A
C3901      H3911   1.083       .  S
C3902      H3912   1.079       .  S
C3913      C3914   1.401       .  A
C3913      C3918   1.404       .  A
C3914      C3915   1.395       .  A
C3914      H3927   1.083       .  S
C3915      C3916   1.404       .  A
C3915      H3928   1.083       .  S
C3916      C3917   1.411       .  A
C3916      C3919   1.490       .  S
C3917      C3918   1.402       .  A
C3917      H3929   1.080       .  S
C3918      H3930   1.083       .  S
C3919      C3920   1.348       .  D
C3919      H3931   1.084       .  S
C3920      C3921   1.491       .  S
C3920      H3932   1.084       .  S
C3921      C3922   1.404       .  A
C3921      C3926   1.409       .  A
C3922      C3923   1.399       .  A
C3922      H3933   1.083       .  S
C3923      C3924   1.407       .  A
C3923      H3934   1.083       .  S
C3924      C3925   1.405       .  A
C3925      C3926   1.398       .  A
C3925      H3935   1.083       .  S
C3926      H3936   1.081       .  S
C3937      C3938   1.400       .  A
C3937      C3942   1.400       .  A
C3938      C3939   1.394       .  A
C3938      H3951   1.083       .  S
C3939      C3940   1.404       .  A
C3939      H3952   1.083       .  S
C3940      C3941   1.410       .  A
C3940      C3943   1.484       .  S
C3941      C3942   1.398       .  A
C3941      H3953   1.081       .  S
C3942      H3954   1.083       .  S
C3943      C3944   1.346       .  D
C3943      H3955   1.085       .  S
C3944      C3945   1.485       .  S
C3944      H3956   1.084       .  S
C3945      C3946   1.402       .  A
C3945      C3950   1.408       .  A
C3946      C3947   1.397       .  A
C3946      H3957   1.083       .  S
C3947      C3948   1.407       .  A
C3947      H3958   1.083       .  S
C3948      C3949   1.405       .  A
C3949      C3950   1.397       .  A
C3949      H3959   1.083       .  S
C3950      H3960   1.081       .  S
