geometry optimzed in LAMMPS
_audit_creation_date              2020-11-30 
_audit_creation_method            'lammps2cif' 
_symmetry_space_group_name_H-M    'P1' 
_symmetry_Int_Tables_number       1 
_symmetry_cell_setting            triclinic 
loop_ 
_symmetry_equiv_pos_as_xyz 
  x,y,z 
_cell_length_a                    35.32211104490731 
_cell_length_b                    21.23944592349431 
_cell_length_c                    39.24389736824608 
_cell_angle_alpha                 89.9983672513662 
_cell_angle_beta                  89.73905585698138 
_cell_angle_gamma                 90.07201970577567 
loop_ 
_atom_site_label 
_atom_site_type_symbol 
_atom_site_fract_x 
_atom_site_fract_y 
_atom_site_fract_z 
_atom_site_charge 
O1          O  0.41900550  0.38598594  0.30607478    -0.79370
O2          O  0.43170700  0.40495434  0.19029950    -0.79390
O3          O  0.42660374  0.27488163  0.27543700    -0.79400
O4          O  0.35757906  0.50754531  0.22221664    -0.79340
O5          O  0.45403937  0.33602605  0.24019357    -0.79470
O6          O  0.39783767  0.49867727  0.26631561    -0.79390
O7          O  0.37842380  0.43564193  0.16725316    -0.79370
O8          O  0.38919271  0.30305864  0.32892070    -0.79410
C9          C  0.41509523  0.34548600  0.33077605     1.10320
C10         C  0.41445442  0.43491872  0.16777443     1.10200
C11         C  0.45664839  0.29435346  0.26210976     1.10340
C12         C  0.38221703  0.53086639  0.24279011     1.10220
O13         O  0.32292709  0.47163228  0.27275608    -0.79370
O14         O  0.39372972  0.23876683  0.22372209    -0.79450
O15         O  0.33021506  0.36398868  0.30556118    -0.79380
O16         O  0.32334373  0.33976799  0.18793685    -0.79360
O17         O  0.37779509  0.31119292  0.16643105    -0.79420
O18         O  0.35922548  0.44808433  0.32761359    -0.79380
O19         O  0.29781777  0.40800274  0.23748088    -0.79340
O20         O  0.35221818  0.24995020  0.26720650    -0.79410
Co21       Co  0.37183853  0.42276164  0.28264478     1.51530
Co22       Co  0.41241148  0.32549117  0.20756457     1.51690
Co23       Co  0.37803969  0.32589637  0.28338780     1.51570
Co24       Co  0.34088832  0.41989511  0.20614394     1.51470
O25         O  0.37596590  0.37339594  0.23812673    -1.41310
C26         C  0.29368917  0.44987740  0.25915571     1.10250
C27         C  0.36842839  0.21663783  0.24431304     1.10340
C28         C  0.33344718  0.40555314  0.32978100     1.10270
C29         C  0.34183709  0.31260767  0.16500739     1.10250
O30         O  0.35347469  0.01907414  0.23315251    -0.79370
O31         O  0.43431733  0.79326274  0.26797975    -0.79390
O32         O  0.42310284  0.88934975  0.30493501    -0.79400
O33         O  0.40511951  0.86854439  0.16432712    -0.79340
O34         O  0.39784236  0.80386453  0.32715436    -0.79470
O35         O  0.39390047  0.96426160  0.18287065    -0.79390
O36         O  0.44680086  0.83183221  0.21757740    -0.79370
O37         O  0.39565986  0.99991862  0.27283113    -0.79410
C38         C  0.37840236  0.03822869  0.25373410     1.10320
C39         C  0.45771319  0.80541583  0.24414039     1.10200
C40         C  0.42296701  0.84690622  0.32873896     1.10340
C41         C  0.41140074  0.92682341  0.16359921     1.10220
O42         O  0.33165094  0.88130235  0.16953974    -0.79370
O43         O  0.33243497  0.85509039  0.30748996    -0.79450
O44         O  0.31922148  0.95615809  0.27546146    -0.79380
O45         O  0.39478063  0.72932217  0.22953062    -0.79360
O46         O  0.35682591  0.74731612  0.27263022    -0.79420
O47         O  0.29836355  0.91780186  0.22765123    -0.79380
O48         O  0.34636533  0.78513325  0.18549728    -0.79340
O49         O  0.35943956  0.93853025  0.33045190    -0.79410
Co50       Co  0.34655576  0.93968211  0.20633286     1.51530
Co51       Co  0.38193338  0.82867597  0.28249903     1.51690
Co52       Co  0.37174705  0.91782613  0.28408655     1.51570
Co53       Co  0.39640099  0.80969358  0.20268274     1.51470
O54         O  0.37414144  0.87456028  0.23693048    -1.41310
C55         C  0.32722026  0.82259851  0.16777159     1.10250
C56         C  0.33376258  0.89609249  0.33195270     1.10340
C57         C  0.29210580  0.94288349  0.25585699     1.10270
C58         C  0.37250047  0.70931839  0.25234838     1.10250
O59         O  0.10862398  0.26928094  0.23156100    -0.79370
O60         O  0.18335897  0.03851536  0.27329237    -0.79390
O61         O  0.17531052  0.14130680  0.30546073    -0.79400
O62         O  0.16792621  0.11621543  0.16870778    -0.79340
O63         O  0.14722678  0.06023137  0.33003901    -0.79470
O64         O  0.15286869  0.21316621  0.18345419    -0.79390
O65         O  0.20236359  0.07846977  0.22534218    -0.79370
O66         O  0.15180566  0.24834700  0.26962588    -0.79410
C67         C  0.13437202  0.28732771  0.25150165     1.10320
C68         C  0.20976761  0.05225602  0.25288766     1.10200
C69         C  0.17379758  0.10110353  0.33042968     1.10340
C70         C  0.17245029  0.17486527  0.16632735     1.10220
O71         O  0.09197301  0.13149338  0.16653469    -0.79370
O72         O  0.08495493  0.11490945  0.30877004    -0.79450
O73         O  0.07161166  0.20812654  0.27208797    -0.79380
O74         O  0.14442866  0.98004432  0.23373934    -0.79360
O75         O  0.10474078  0.00462824  0.27507545    -0.79420
O76         O  0.05402816  0.16936814  0.22302117    -0.79380
O77         O  0.10514223  0.03527122  0.18344296    -0.79340
O78         O  0.11415318  0.19949996  0.32774426    -0.79410
Co79       Co  0.10381194  0.18985291  0.20435051     1.51530
Co80       Co  0.13301040  0.08228963  0.28454086     1.51690
Co81       Co  0.12496430  0.17074458  0.28278578     1.51570
Co82       Co  0.15314797  0.05813645  0.20578371     1.51470
O83         O  0.12786321  0.12416093  0.23719137    -1.41310
C84         C  0.08739510  0.07285665  0.16459303     1.10250
C85         C  0.08872771  0.15761599  0.33201963     1.10340
C86         C  0.04561408  0.19384056  0.25106150     1.10270
C87         C  0.11963202  0.96448107  0.25562208     1.10250
O88         O  0.14627502  0.48278694  0.23197941    -0.79370
O89         O  0.06677701  0.70566746  0.27366522    -0.79390
O90         O  0.07975061  0.60776871  0.30741512    -0.79400
O91         O  0.08986723  0.63585721  0.16779336    -0.79340
O92         O  0.10603125  0.69173640  0.33043205    -0.79470
O93         O  0.10454212  0.53916330  0.18295986    -0.79390
O94         O  0.05083823  0.66850865  0.22400719    -0.79370
O95         O  0.10419997  0.50177680  0.27203385    -0.79410
C96         C  0.12116239  0.46388491  0.25268756     1.10320
C97         C  0.04152005  0.69168778  0.25205345     1.10200
C98         C  0.08109983  0.64836497  0.33204830     1.10340
C99         C  0.08586066  0.57721177  0.16506954     1.10220
O100        O  0.16524695  0.62412876  0.16913783    -0.79370
O101        O  0.16913629  0.64035563  0.30802390    -0.79450
O102        O  0.18272018  0.54276505  0.27335806    -0.79380
O103        O  0.10427659  0.77050215  0.23531587    -0.79360
O104        O  0.14578623  0.74804375  0.27471817    -0.79420
O105        O  0.20128635  0.58462893  0.22548956    -0.79380
O106        O  0.14944787  0.71906987  0.18672392    -0.79340
O107        O  0.14236578  0.55519065  0.32953767    -0.79410
Co108      Co  0.15230990  0.56320276  0.20551463     1.51530
Co109      Co  0.11957022  0.66859321  0.28486971     1.51690
Co110      Co  0.12995816  0.58056303  0.28421871     1.51570
Co111      Co  0.10056606  0.69254314  0.20654184     1.51470
O112        O  0.12554435  0.62617280  0.23811213    -1.41310
C113        C  0.16859325  0.68310626  0.16787298     1.10250
C114        C  0.16716976  0.59869946  0.33206940     1.10340
C115        C  0.20909622  0.55799957  0.25294582     1.10270
C116        C  0.12932290  0.78762206  0.25624855     1.10250
O117        O  0.24217329  0.18658169  0.08094920    -0.79370
O118        O  0.22009816  0.33586739  0.93386824    -0.79390
O119        O  0.23364581  0.37675186  0.02251198    -0.79400
O120        O  0.17387720  0.20063533  0.97996502    -0.79340
O121        O  0.26843629  0.39501100  0.97710806    -0.79470
O122        O  0.19688690  0.16924947  0.02866901    -0.79390
O123        O  0.20496367  0.23835294  0.92053063    -0.79370
O124        O  0.21304729  0.26948637  0.05974607    -0.79410
C125        C  0.21711510  0.22943020  0.08435729     1.10320
C126        C  0.20072458  0.29689282  0.91720482     1.10200
C127        C  0.24783044  0.41476016  0.00129886     1.10340
C128        C  0.16900991  0.17689949  0.00889042     1.10220
O129        O  0.27403304  0.12495899  0.02236754    -0.79370
O130        O  0.32186140  0.29389726  0.96478676    -0.79450
O131        O  0.27855030  0.32253449  0.07525358    -0.79380
O132        O  0.26880948  0.15813323  0.93323022    -0.79360
O133        O  0.27895330  0.25310470  0.91308021    -0.79420
O134        O  0.30294647  0.23700648  0.05229818    -0.79380
O135        O  0.22970954  0.10433684  0.98506522    -0.79340
O136        O  0.31026459  0.33361711  0.01491026    -0.79410
Co137      Co  0.25047445  0.20725778  0.03408438     1.51530
Co138      Co  0.27061734  0.31355351  0.95086137     1.51690
Co139      Co  0.25993386  0.29645391  0.03170171     1.51570
Co140      Co  0.22179802  0.18187352  0.95757280     1.51470
O141        O  0.24952195  0.24970039  0.98664418    -1.41310
C142        C  0.25554514  0.08590588  0.00470454     1.10250
C143        C  0.33308119  0.32161376  0.99084417     1.10340
C144        C  0.30373213  0.27961194  0.07606420     1.10270
C145        C  0.28538148  0.19486147  0.91288618     1.10250
O146        O  0.23477963  0.67690380  0.08017843    -0.79370
O147        O  0.24753174  0.81547475  0.91932312    -0.79390
O148        O  0.22581874  0.87386704  0.01937783    -0.79400
O149        O  0.17174715  0.71084455  0.99108029    -0.79340
O150        O  0.26708314  0.88656694  0.97600018    -0.79470
O151        O  0.19926724  0.64960252  0.02601690    -0.79390
O152        O  0.19446022  0.78241098  0.94208554    -0.79370
O153        O  0.20474132  0.75933862  0.05742256    -0.79410
C154        C  0.20837325  0.71841507  0.08189469     1.10320
C155        C  0.21148133  0.81234213  0.91923884     1.10200
C156        C  0.24221455  0.90812893  0.99704404     1.10340
C157        C  0.16925189  0.66925905  0.01311458     1.10220
O158        O  0.27369487  0.62603279  0.01809663    -0.79370
O159        O  0.32751253  0.78943830  0.99000328    -0.79450
O160        O  0.26321608  0.82208893  0.08038336    -0.79380
O161        O  0.25007541  0.69093639  0.91833624    -0.79360
O162        O  0.30368840  0.72170209  0.94041118    -0.79420
O163        O  0.29390415  0.73990715  0.05791166    -0.79380
O164        O  0.23325259  0.61621977  0.97404046    -0.79340
O165        O  0.30084399  0.84890779  0.02664703    -0.79410
Co166      Co  0.24710643  0.70126008  0.03486178     1.51530
Co167      Co  0.28463346  0.80031167  0.95877713     1.51690
Co168      Co  0.25215064  0.79818091  0.03510018     1.51570
Co169      Co  0.21418930  0.70292451  0.95881307     1.51470
O170        O  0.24968858  0.75064952  0.99007574    -1.41310
C171        C  0.25831473  0.59358774  0.99442835     1.10250
C172        C  0.33057052  0.82991257  0.01255128     1.10340
C173        C  0.28931563  0.78024576  0.08257164     1.10270
C174        C  0.28603862  0.69319721  0.91766022     1.10250
O175        O  0.48116764  0.93339873  0.07828886    -0.79370
O176        O  0.47562794  0.09683308  0.93456011    -0.79390
O177        O  0.47835437  0.12738574  0.02512620    -0.79400
O178        O  0.42427832  0.96147642  0.97260695    -0.79340
O179        O  0.51870924  0.15025604  0.98425916    -0.79470
O180        O  0.44114090  0.92269176  0.02173277    -0.79390
O181        O  0.46266040  0.00078390  0.91696358    -0.79370
O182        O  0.45461745  0.01881021  0.05735138    -0.79410
C183        C  0.45624309  0.97653780  0.08104813     1.10320
C184        C  0.45775409  0.05948846  0.91552160     1.10200
C185        C  0.49479646  0.16705550  0.00652045     1.10340
C186        C  0.41553803  0.93619730  0.00032824     1.10220
O187        O  0.02207502  0.88364976  0.02436499    -0.79370
O188        O  0.06916999  0.05220775  0.96888839    -0.79450
O189        O  0.01924132  0.07722865  0.07839343    -0.79380
O190        O  0.01790101  0.91581851  0.93341294    -0.79360
O191        O  0.02843929  0.01237274  0.91544356    -0.79420
O192        O  0.04626301  0.99375114  0.05563685    -0.79380
O193        O  0.97972386  0.86038065  0.98542961    -0.79340
O194        O  0.05625020  0.08999856  0.01936480    -0.79410
Co195      Co  0.49402213  0.95980025  0.03313175     1.51530
Co196      Co  0.01834585  0.07106256  0.95373391     1.51690
Co197      Co  0.00434432  0.05083945  0.03375388     1.51570
Co198      Co  0.47431313  0.94124158  0.95442913     1.51470
O199        O  0.49881704  0.00614662  0.98734519    -1.41310
C200        C  0.00528463  0.84386003  0.00606211     1.10250
C201        C  0.07983412  0.07895984  0.99550081     1.10340
C202        C  0.04495747  0.03528824  0.07970679     1.10270
C203        C  0.03474747  0.95407490  0.91400802     1.10250
O204        O  0.01774547  0.57583650  0.07881934    -0.79370
O205        O  0.02119515  0.41815672  0.93373239    -0.79390
O206        O  0.02244532  0.38259705  0.02546961    -0.79400
O207        O  0.06970922  0.55163629  0.96921304    -0.79340
O208        O  0.98287021  0.35904553  0.98423587    -0.79470
O209        O  0.05626549  0.58662769  0.02026580    -0.79550
O210        O  0.02850713  0.51487733  0.91529839    -0.79370
O211        O  0.04533233  0.49243122  0.05681616    -0.79410
C212        C  0.04342720  0.53397171  0.08080127     1.10320
C213        C  0.03667974  0.45735280  0.91407963     1.10200
C214        C  0.00688543  0.34284191  0.00631740     1.10340
C215        C  0.08030450  0.57460664  0.99688191     1.10220
O216        O  0.47490017  0.62672445  0.02110269    -0.79370
O217        O  0.42416500  0.45024909  0.97848083    -0.79450
O218        O  0.48314839  0.44079766  0.08174945    -0.79380
O219        O  0.46957708  0.58842963  0.93485028    -0.79360
O220        O  0.45592539  0.49059798  0.92069301    -0.79420
O221        O  0.45369491  0.51992792  0.05697229    -0.79380
O222        O  0.51526518  0.64835628  0.98045480    -0.79340
O223        O  0.44552540  0.41594157  0.02678740    -0.79410
Co224      Co  0.00371092  0.54927902  0.03394848     1.51530
Co225      Co  0.47306049  0.43403825  0.95742686     1.51690
Co226      Co  0.49575909  0.46127192  0.03550009     1.51570
Co227      Co  0.01873650  0.57123185  0.95452390     1.51470
O228        O  0.49859176  0.50213790  0.98765406    -1.41310
C229        C  0.49077552  0.66595663  0.00188524     1.10250
C230        C  0.41855496  0.42385280  0.00643338     1.10340
C231        C  0.45604914  0.48062764  0.08219090     1.10270
C232        C  0.45061816  0.54896069  0.91805951     1.10250
O233        O  0.41766849  0.14222185  0.80610900    -0.79370
O234        O  0.41280454  0.11544734  0.66681697    -0.79390
O235        O  0.43310942  0.04319232  0.77263758    -0.79400
O236        O  0.35182141  0.26667851  0.72982272    -0.79340
O237        O  0.45035433  0.08038165  0.72318862    -0.79470
O238        O  0.39232249  0.24922198  0.77090272    -0.79390
O239        O  0.39726888  0.21169199  0.68226876    -0.79370
O240        O  0.39230576  0.05665781  0.82863522    -0.79410
C241        C  0.41623441  0.10151337  0.83074830     1.10320
C242        C  0.41664478  0.17425108  0.66443285     1.10200
C243        C  0.45894002  0.05633073  0.75118247     1.10340
C244        C  0.37541268  0.28682953  0.75134887     1.10220
O245        O  0.31473704  0.20341611  0.77047410    -0.79370
O246        O  0.39720249  0.97760317  0.73228209    -0.79450
O247        O  0.32899923  0.10578029  0.80558666    -0.79380
O248        O  0.33817168  0.12582610  0.66608775    -0.79360
O249        O  0.35247623  0.03105921  0.68454726    -0.79420
O250        O  0.35373189  0.19252126  0.82720503    -0.79380
O251        O  0.29885749  0.16359753  0.72143120    -0.79340
O252        O  0.35569133  0.99648704  0.77258981    -0.79410
Co253      Co  0.36782922  0.16809370  0.78219067     1.51530
Co254      Co  0.40097998  0.05724405  0.70483691     1.51690
Co255      Co  0.37960270  0.07870776  0.78295368     1.51570
Co256      Co  0.34865667  0.18607787  0.70321550     1.51470
O257        O  0.37449818  0.12253281  0.73631881    -1.41310
C258        C  0.28950633  0.18941744  0.74882645     1.10250
C259        C  0.37295138  0.95804331  0.75357339     1.10340
C260        C  0.32964732  0.14789610  0.82955315     1.10270
C261        C  0.33372904  0.06707861  0.66560090     1.10250
O262        O  0.32348730  0.61440603  0.80606241    -0.79370
O263        O  0.31914362  0.59005978  0.69040681    -0.79390
O264        O  0.32112435  0.72319597  0.77318851    -0.79400
O265        O  0.38799997  0.48548524  0.72649942    -0.79340
O266        O  0.29543473  0.65960531  0.73852002    -0.79470
O267        O  0.34582380  0.49905908  0.76916372    -0.79390
O268        O  0.37248091  0.55689928  0.66879113    -0.79370
O269        O  0.35301836  0.69672554  0.82920034    -0.79410
C270        C  0.32582995  0.65644220  0.83012239     1.10320
C271        C  0.33654029  0.56040358  0.66784067     1.10200
C272        C  0.29180235  0.70170641  0.75997183     1.10340
C273        C  0.36218587  0.46466817  0.74682864     1.10220
O274        O  0.42037176  0.52278384  0.77924978    -0.79370
O275        O  0.35752207  0.75620534  0.72315217    -0.79450
O276        O  0.41367713  0.63318895  0.80915967    -0.79380
O277        O  0.42894880  0.64797883  0.69182919    -0.79360
O278        O  0.37665033  0.68137469  0.66831042    -0.79420
O279        O  0.38159426  0.55268041  0.83179037    -0.79380
O280        O  0.44934331  0.57847191  0.74204977    -0.79340
O281        O  0.39556005  0.74651684  0.76885801    -0.79410
Co282      Co  0.37201064  0.57484165  0.78566259     1.51530
Co283      Co  0.33878875  0.66921616  0.70751533     1.51690
Co284      Co  0.36797102  0.67151062  0.78453576     1.51570
Co285      Co  0.40776323  0.57036136  0.70966173     1.51470
O286        O  0.37253135  0.62159260  0.74006009    -1.41310
C287        C  0.45069340  0.53801635  0.76476799     1.10250
C288        C  0.38152653  0.77894161  0.74456566     1.10340
C289        C  0.40836386  0.59355157  0.83399641     1.10270
C290        C  0.41263060  0.67762945  0.66869425     1.10250
O291        O  0.07735619  0.36655737  0.80653556    -0.79370
O292        O  0.07044679  0.34226899  0.68972594    -0.79390
O293        O  0.07159124  0.47483653  0.77334241    -0.79400
O294        O  0.14089797  0.23871319  0.72550496    -0.79340
O295        O  0.04636979  0.41146633  0.73820396    -0.79470
O296        O  0.09847461  0.25171330  0.76796330    -0.79390
O297        O  0.12411936  0.30911149  0.66842568    -0.79370
O298        O  0.10689962  0.45032069  0.82834610    -0.79410
C299        C  0.08068152  0.40857677  0.83058933     1.10320
C300        C  0.08812442  0.31091333  0.66796437     1.10200
C301        C  0.04225188  0.45286475  0.76007197     1.10340
C302        C  0.11497969  0.21749871  0.74565494     1.10220
O303        O  0.17359005  0.27561061  0.77689643    -0.79370
O304        O  0.10765338  0.50901125  0.72271335    -0.79450
O305        O  0.16598153  0.38567343  0.80817421    -0.79380
O306        O  0.17968453  0.40283803  0.69029566    -0.79360
O307        O  0.12688490  0.43480124  0.66714571    -0.79420
O308        O  0.13494481  0.30296294  0.82986436    -0.79380
O309        O  0.20161551  0.33501376  0.74097964    -0.79340
O310        O  0.14667972  0.49944325  0.76771801    -0.79410
Co311      Co  0.12500903  0.32705840  0.78442123     1.51530
Co312      Co  0.08957793  0.42179729  0.70688197     1.51690
Co313      Co  0.11976305  0.42416128  0.78370956     1.51570
Co314      Co  0.15972661  0.32458320  0.70867572     1.51470
O315        O  0.12402069  0.37457328  0.73914492    -1.41310
C316        C  0.20381499  0.29393404  0.76330074     1.10250
C317        C  0.13183087  0.53197020  0.74389348     1.10340
C318        C  0.16102622  0.34484468  0.83263592     1.10270
C319        C  0.16290189  0.43157817  0.66703955     1.10250
O320        O  0.16977479  0.89550838  0.80807947    -0.79370
O321        O  0.16725428  0.86795576  0.66952414    -0.79390
O322        O  0.18333946  0.79538188  0.77534261    -0.79400
O323        O  0.10401737  0.01878974  0.73095859    -0.79340
O324        O  0.20217746  0.83534382  0.72717858    -0.79470
O325        O  0.14396978  0.00199876  0.77240823    -0.79390
O326        O  0.15164029  0.96386737  0.68519561    -0.79370
O327        O  0.14416612  0.81114803  0.83149506    -0.79410
C328        C  0.16924588  0.85446203  0.83266045     1.10320
C329        C  0.17107991  0.92669265  0.66732965     1.10200
C330        C  0.20972218  0.81094537  0.75520242     1.10340
C331        C  0.12730560  0.03938982  0.75258099     1.10220
O332        O  0.06601148  0.95514798  0.77102711    -0.79370
O333        O  0.14877116  0.73051518  0.73456082    -0.79450
O334        O  0.08011400  0.85950875  0.80795483    -0.79380
O335        O  0.09291901  0.87810549  0.66651979    -0.79360
O336        O  0.10684014  0.78308307  0.68485770    -0.79420
O337        O  0.10512541  0.94652058  0.82867801    -0.79380
O338        O  0.05248238  0.91523630  0.72123388    -0.79340
O339        O  0.10731864  0.74903174  0.77526613    -0.79410
Co340      Co  0.11944292  0.92083083  0.78387334     1.51530
Co341      Co  0.15402777  0.81011302  0.70721879     1.51690
Co342      Co  0.13071659  0.83185579  0.78550296     1.51570
Co343      Co  0.10228982  0.93809159  0.70436743     1.51470
O344        O  0.12614092  0.87431905  0.73827008    -1.41310
C345        C  0.04197900  0.94206510  0.74796672     1.10250
C346        C  0.12446679  0.71085559  0.75586739     1.10340
C347        C  0.08082955  0.90236849  0.83151162     1.10270
C348        C  0.08912949  0.81917953  0.66514040     1.10250
O349        O  0.25475429  0.93583890  0.41787282    -0.79370
O350        O  0.26576770  0.07124154  0.57962406    -0.79390
O351        O  0.32856903  0.03832308  0.49033557    -0.79400
O352        O  0.27642744  0.87563399  0.51807566    -0.79340
O353        O  0.30135579  0.10019397  0.52517097    -0.79470
O354        O  0.23615256  0.86277867  0.47426392    -0.79390
O355        O  0.29648043  0.99006209  0.55613911    -0.79370
O356        O  0.30708858  0.97003573  0.44084045    -0.79410
C357        C  0.29069972  0.93992571  0.41794574     1.10320
C358        C  0.29258577  0.03044536  0.58080861     1.10200
C359        C  0.33133084  0.07996708  0.51218407     1.10340
C360        C  0.26106012  0.84155379  0.49516580     1.10220
O361        O  0.17404838  0.95594932  0.48858218    -0.79370
O362        O  0.22650161  0.12257093  0.51837882    -0.79450
O363        O  0.25064423  0.06164941  0.41788706    -0.79380
O364        O  0.23790725  0.92685303  0.57975915    -0.79360
O365        O  0.20676257  0.00807373  0.55720216    -0.79420
O366        O  0.19724565  0.02649750  0.43915129    -0.79380
O367        O  0.20157281  0.89916142  0.52593131    -0.79340
O368        O  0.26708487  0.13438713  0.47431766    -0.79410
Co369      Co  0.21737498  0.94841216  0.45742475     1.51530
Co370      Co  0.25359558  0.04759029  0.53424295     1.51690
Co371      Co  0.28652920  0.04829063  0.45819394     1.51570
Co372      Co  0.24940672  0.95083070  0.53418364     1.51470
O373        O  0.25123848  0.99907987  0.48915133    -1.41310
C374        C  0.17172659  0.91624433  0.51167458     1.10250
C375        C  0.24192987  0.15607502  0.49511173     1.10340
C376        C  0.21469094  0.05762918  0.41702807     1.10270
C377        C  0.21118649  0.96770802  0.58181562     1.10250
O378        O  0.22952957  0.58850385  0.43332018    -0.79370
O379        O  0.23109441  0.43169271  0.57883760    -0.79390
O380        O  0.17712364  0.45789982  0.47218961    -0.79400
O381        O  0.23289128  0.62520464  0.52255682    -0.79340
O382        O  0.19293842  0.41898262  0.52152385    -0.79470
O383        O  0.27375989  0.64321165  0.48137549    -0.79390
O384        O  0.20571439  0.51661794  0.55633557    -0.79370
O385        O  0.21576414  0.49257449  0.41636342    -0.79410
C386        C  0.21078912  0.55114988  0.41502182     1.10320
C387        C  0.20584994  0.47457359  0.58035907     1.10200
C388        C  0.16791852  0.43272882  0.49971350     1.10340
C389        C  0.24983850  0.66306317  0.50289172     1.10220
O390        O  0.32701975  0.54027594  0.47308164    -0.79370
O391        O  0.26968521  0.37245185  0.52277175    -0.79450
O392        O  0.27523565  0.40827267  0.43423805    -0.79380
O393        O  0.27068902  0.56559380  0.57909532    -0.79360
O394        O  0.29631936  0.48082631  0.55630916    -0.79420
O395        O  0.28980852  0.50383839  0.41693483    -0.79380
O396        O  0.30966529  0.57915483  0.52212420    -0.79340
O397        O  0.22945090  0.35429959  0.48154331    -0.79410
Co398      Co  0.27789576  0.56314251  0.45439768     1.51530
Co399      Co  0.24577398  0.45452984  0.53331017     1.51690
Co400      Co  0.22649253  0.43422055  0.45437163     1.51570
Co401      Co  0.25667700  0.54321368  0.53342892     1.51470
O402        O  0.25174756  0.49888382  0.48687307    -1.41310
C403        C  0.33545371  0.56475381  0.50096178     1.10250
C404        C  0.25287862  0.33444540  0.50326744     1.10340
C405        C  0.29394078  0.44503492  0.41546403     1.10270
C406        C  0.29585583  0.52252081  0.58046343     1.10250
O407        O  0.47423857  0.34108079  0.43367943    -0.79370
O408        O  0.48387320  0.18193316  0.57781053    -0.79390
O409        O  0.42377384  0.20964475  0.47408757    -0.79400
O410        O  0.97876187  0.36941443  0.52935134    -0.79340
O411        O  0.44216547  0.17040764  0.52258963    -0.79470
O412        O  0.01848966  0.39764101  0.48882611    -0.79390
O413        O  0.45717591  0.26755505  0.55704602    -0.79370
O414        O  0.46003982  0.24515295  0.41691805    -0.79410
C415        C  0.45539923  0.30380806  0.41548626     1.10320
C416        C  0.45943908  0.22573382  0.58106004     1.10200
C417        C  0.41588061  0.18538870  0.50222752     1.10340
C418        C  0.99440837  0.41143984  0.51154041     1.10220
O419        O  0.07690327  0.30430607  0.47747484    -0.79370
O420        O  0.52002940  0.12548077  0.52017187    -0.79450
O421        O  0.02980236  0.17035997  0.43240253    -0.79380
O422        O  0.01945212  0.30755907  0.58293733    -0.79360
O423        O  0.04806279  0.22923191  0.55651715    -0.79420
O424        O  0.04246443  0.26934664  0.41991055    -0.79380
O425        O  0.05707570  0.33431686  0.52743588    -0.79340
O426        O  0.47708920  0.10659159  0.48137549    -0.79410
Co427      Co  0.02702987  0.32288396  0.45876282     1.51530
Co428      Co  0.49552926  0.20642968  0.53220761     1.51690
Co429      Co  0.47257011  0.18658231  0.45434308     1.51570
Co430      Co  0.00634971  0.28999261  0.53655107     1.51470
O431        O  0.49924069  0.25135529  0.48591136    -1.41310
C432        C  0.08365942  0.32600468  0.50639232     1.10250
C433        C  0.50220658  0.08714169  0.50162811     1.10340
C434        C  0.04779416  0.21124993  0.41566608     1.10270
C435        C  0.04628026  0.26731234  0.58237367     1.10250
O436        O  0.49816331  0.81498320  0.41856878    -0.79370
O437        O  0.48384072  0.68062394  0.58181664    -0.79390
O438        O  0.42310558  0.70921582  0.48939881    -0.79400
O439        O  0.98048628  0.87419619  0.52191175    -0.79340
O440        O  0.44941706  0.65150907  0.52685951    -0.79470
O441        O  0.01823135  0.89154184  0.47839289    -0.79390
O442        O  0.45297738  0.76013624  0.55793961    -0.79370
O443        O  0.44559003  0.77373538  0.43818701    -0.79410
C444        C  0.46263440  0.80638373  0.41647405     1.10320
C445        C  0.45598551  0.71948517  0.58252369     1.10200
C446        C  0.41991185  0.66988127  0.51247134     1.10340
C447        C  0.99542264  0.91134140  0.50086168     1.10220
O448        O  0.07273964  0.79142123  0.46876798    -0.79370
O449        O  0.52456944  0.62753586  0.52144049    -0.79450
O450        O  0.02168915  0.65359497  0.43747468    -0.79380
O451        O  0.02388863  0.82628833  0.57731991    -0.79360
O452        O  0.04993328  0.74052052  0.55603458    -0.79420
O453        O  0.03188495  0.74776811  0.41615272    -0.79380
O454        O  0.05941006  0.83407317  0.51788814    -0.79340
O455        O  0.48526837  0.61355116  0.47714003    -0.79410
Co456      Co  0.02195347  0.80973752  0.45291981     1.51530
Co457      Co  0.49733413  0.70332995  0.53603745     1.51690
Co458      Co  0.46653974  0.69823507  0.45872840     1.51570
Co459      Co  0.00791202  0.79673078  0.53360518     1.51470
O460        O  0.49996152  0.75063099  0.49024681    -1.41310
C461        C  0.08331031  0.81969464  0.49492312     1.10250
C462        C  0.50963486  0.59282904  0.49867117     1.10340
C463        C  0.03810149  0.68944953  0.41655649     1.10270
C464        C  0.04917340  0.78369659  0.57929200     1.10250
C465        C  0.98653707  0.47815950  0.51739475    -0.15670
C466        C  0.51766841  0.52507137  0.49881932    -0.30840
H467        H  0.95726622  0.49345436  0.51930569     0.13360
H468        H  0.54629463  0.50945223  0.49319477     0.13930
C469        C  0.50910656  0.01875065  0.50412767    -0.15670
C470        C  0.98841586  0.97908250  0.50326753    -0.30840
H471        H  0.53711949  0.00267436  0.51146771     0.13360
H472        H  0.95954930  0.99553019  0.50683250     0.13930
C473        C  0.12882974  0.41098498  0.50359083    -0.15670
C474        C  0.12117085  0.35188050  0.51341981    -0.30840
H475        H  0.10657845  0.43928981  0.49219701     0.13360
H476        H  0.14355629  0.32052047  0.52178847     0.13930
C477        C  0.37486815  0.58455675  0.50627315    -0.15670
C478        C  0.38290864  0.64125452  0.51942760    -0.30840
H479        H  0.39706045  0.55813623  0.49340577     0.13360
H480        H  0.36022078  0.67147977  0.52851606     0.13930
C481        C  0.12255245  0.84309178  0.49555449    -0.15670
C482        C  0.13552291  0.88448936  0.51849540    -0.30840
H483        H  0.14055802  0.83072557  0.47400294     0.13360
H484        H  0.11850505  0.89864111  0.54028281     0.13930
C485        C  0.26925314  0.77375765  0.49452014    -0.15670
C486        C  0.24331612  0.73160358  0.50556531    -0.30840
H487        H  0.29669265  0.75839910  0.48513357     0.13360
H488        H  0.21694910  0.74796110  0.51684390     0.13930
C489        C  0.23380807  0.22383808  0.49408832    -0.15670
C490        C  0.25898926  0.26588344  0.50637195    -0.30840
H491        H  0.20724985  0.23925365  0.48305404     0.13360
H492        H  0.28449590  0.24940613  0.51891216     0.13930
C493        C  0.36847691  0.10780074  0.51945068    -0.15670
C494        C  0.37644886  0.16622141  0.50861393    -0.30840
H495        H  0.39142285  0.07615937  0.52613777     0.13360
H496        H  0.35405242  0.19466371  0.49759415     0.13930
C497        C  0.19752528  0.94959738  0.64162878    -0.15670
C498        C  0.18502476  0.96681901  0.61088121    -0.30840
H499        H  0.22724714  0.93818720  0.64508224     0.13360
H500        H  0.15528191  0.97721223  0.60680178     0.13930
C501        C  0.06396854  0.79445988  0.63903459    -0.15670
C502        C  0.07652379  0.78479452  0.60719448    -0.30840
H503        H  0.03371629  0.79757262  0.64397249     0.13360
H504        H  0.10660847  0.78198473  0.60156171     0.13930
C505        C  0.18753258  0.45408291  0.63894677    -0.15670
C506        C  0.17670596  0.47253128  0.60775105    -0.30840
H507        H  0.21771128  0.44755227  0.64318498     0.13360
H508        H  0.14721746  0.48184514  0.60202174     0.13930
C509        C  0.07563172  0.26935645  0.60919136    -0.15670
C510        C  0.06445905  0.28278854  0.64106995    -0.30840
H511        H  0.10539486  0.26710403  0.60234803     0.13360
H512        H  0.03415136  0.28346407  0.64627260     0.13930
C513        C  0.11798205  0.64207628  0.75886319    -0.15670
C514        C  0.13994673  0.59987078  0.74223338    -0.30840
H515        H  0.09482000  0.62558088  0.77487536     0.13360
H516        H  0.16345206  0.61529792  0.72636981     0.13930
C517        C  0.13350422  0.10794641  0.75515691    -0.15670
C518        C  0.10703643  0.14961709  0.74504289    -0.30840
H519        H  0.16006109  0.12472153  0.76569811     0.13360
H520        H  0.07932430  0.13379904  0.73674948     0.13930
C521        C  0.32455264  0.52366514  0.60788956    -0.15670
C522        C  0.31282176  0.53717360  0.63958715    -0.30840
H523        H  0.35438770  0.51846693  0.60183200     0.13360
H524        H  0.28242728  0.54048749  0.64397776     0.13930
C525        C  0.42670027  0.71462399  0.60944654    -0.15670
C526        C  0.43755571  0.70087607  0.64120844    -0.30840
H527        H  0.39697965  0.71930138  0.60303214     0.13360
H528        H  0.46777618  0.69823252  0.64630523     0.13930
C529        C  0.48620058  0.50336004  0.77055903    -0.15670
C530        C  0.00401843  0.47721458  0.76754270    -0.30840
H531        H  0.50111299  0.50870303  0.79451295     0.13360
H532        H  0.98097465  0.44330636  0.76858557     0.13930
C533        C  0.25456139  0.72854050  0.76674482    -0.15670
C534        C  0.24841333  0.78985646  0.76132723    -0.30840
H535        H  0.23073179  0.69635324  0.76912490     0.13360
H536        H  0.27174981  0.82056516  0.75411965     0.13930
C537        C  0.31969982  0.03180976  0.60873755    -0.15670
C538        C  0.30756777  0.04229717  0.64051641    -0.30840
H539        H  0.34973281  0.02781039  0.60304856     0.13360
H540        H  0.27745473  0.04680278  0.64578790     0.13930
C541        C  0.44407275  0.19652246  0.63924220    -0.15670
C542        C  0.43352326  0.22580100  0.61054880    -0.30840
H543        H  0.47214835  0.17582335  0.64070373     0.13360
H544        H  0.40532577  0.24551145  0.60803854     0.13930
C545        C  0.00259057  0.96521506  0.74873624    -0.15670
C546        C  0.49859347  0.03628849  0.75628618    -0.30840
H547        H  0.98391980  0.94668874  0.72915872     0.13360
H548        H  0.52002534  0.05759467  0.73995773     0.13930
C549        C  0.36641714  0.88942129  0.75693813    -0.15670
C550        C  0.39002304  0.84668737  0.74277867    -0.30840
H551        H  0.34183162  0.87345820  0.77129680     0.13360
H552        H  0.41528769  0.86152178  0.72910040     0.13930
C553        C  0.35421364  0.39686017  0.74630956    -0.15670
C554        C  0.38160856  0.35522561  0.75417926    -0.30840
H555        H  0.32584471  0.38102245  0.74003666     0.13360
H556        H  0.40893142  0.37190762  0.76307173     0.13930
C557        C  0.24046689  0.26316232  0.76996732    -0.15670
C558        C  0.24979553  0.21034305  0.75297485    -0.30840
H559        H  0.26212090  0.28985278  0.78319848     0.13360
H560        H  0.22856101  0.18784702  0.73710614     0.13930
C561        C  0.43408233  0.59320878  0.86321412    -0.15670
C562        C  0.42284117  0.56879219  0.89298410    -0.30840
H563        H  0.46287498  0.61025250  0.85986507     0.13360
H564        H  0.39430857  0.55021889  0.89569458     0.13930
C565        C  0.06434517  0.43817487  0.88850363    -0.15670
C566        C  0.05396200  0.41036778  0.85936869    -0.30840
H567        H  0.09253345  0.45821492  0.89082825     0.13360
H568        H  0.02565398  0.39119688  0.85638945     0.13930
C569        C  0.44233180  0.10418755  0.85983511    -0.15670
C570        C  0.43082141  0.08194253  0.89016521    -0.30840
H571        H  0.47134536  0.11959220  0.85588354     0.13360
H572        H  0.40180651  0.06565635  0.89314124     0.13930
C573        C  0.06283427  0.93352668  0.88888916    -0.15670
C574        C  0.05368738  0.90268079  0.86021867    -0.30840
H575        H  0.09047043  0.95576486  0.89078500     0.13360
H576        H  0.02600345  0.88112208  0.85730427     0.13930
C577        C  0.48277595  0.73324336  0.00516805    -0.15670
C578        C  0.01344608  0.77660432  0.00939105    -0.30840
H579        H  0.95576018  0.75002467  0.01100574     0.13360
H580        H  0.54047305  0.75971529  0.00621461     0.13930
C581        C  0.01425125  0.27566017  0.01030790    -0.15670
C582        C  0.48765834  0.23406578  0.01119548    -0.30840
H583        H  0.54558571  0.25995021  0.01312044     0.13360
H584        H  0.95612883  0.25139513  0.00945993     0.13930
C585        C  0.29719579  0.66008850  0.85749513    -0.15670
C586        C  0.30935145  0.66949735  0.88933106    -0.30840
H587        H  0.26724697  0.65897599  0.85147703     0.13360
H588        H  0.33975375  0.66905394  0.89381123     0.13930
C589        C  0.18710152  0.83613989  0.89148009    -0.15670
C590        C  0.19816978  0.85332146  0.86003619    -0.30840
H591        H  0.15684093  0.83065322  0.89597979     0.13360
H592        H  0.22780142  0.86115488  0.85397454     0.13930
C593        C  0.13251888  0.63934658  0.02027931    -0.15670
C594        C  0.12026631  0.59407296  0.99924452    -0.30840
H595        H  0.11366898  0.66048374  0.03895361     0.13360
H596        H  0.13937943  0.57684939  0.97952157     0.13930
C597        C  0.37601592  0.91530958  0.00526891    -0.15670
C598        C  0.36766688  0.85908428  0.01910804    -0.30840
H599        H  0.35399327  0.94096043  0.99188238     0.13360
H600        H  0.39019440  0.82953652  0.02893627     0.13930
C601        C  0.31299371  0.17215989  0.88801854    -0.15670
C602        C  0.30256049  0.14710754  0.85812893    -0.30840
H603        H  0.34177152  0.18938137  0.89109040     0.13360
H604        H  0.27384761  0.13044389  0.85413308     0.13930
C605        C  0.18586372  0.34447053  0.86250939    -0.15670
C606        C  0.17391920  0.31733873  0.89144394    -0.30840
H607        H  0.21441642  0.36311924  0.86030127     0.13360
H608        H  0.14563705  0.29729769  0.89286252     0.13930
C609        C  0.11870981  0.10415581  0.99536256    -0.15670
C610        C  0.13210191  0.14780125  0.01695995    -0.30840
H611        H  0.13630222  0.09061014  0.97373102     0.13360
H612        H  0.11630719  0.16194159  0.03947361     0.13930
C613        C  0.24204840  0.48327897  0.00539102    -0.15670
C614        C  0.26646233  0.52583086  0.99222119    -0.30840
H615        H  0.21754620  0.49931378  0.01979274     0.13360
H616        H  0.29202984  0.51081854  0.97909980     0.13930
C617        C  0.26206137  0.01740485  0.00729578    -0.15670
C618        C  0.23513334  0.97609387  0.99730746    -0.30840
H619        H  0.28893000  0.00051220  0.01706463     0.13360
H620        H  0.20728284  0.99231569  0.98967335     0.13930
C621        C  0.37118465  0.34843223  0.99033938    -0.15670
C622        C  0.38254161  0.39215163  0.01266807    -0.30840
H623        H  0.38929182  0.33670419  0.96875461     0.13360
H624        H  0.36585175  0.40395898  0.03507422     0.13930
C625        C  0.19417510  0.70807345  0.14205322    -0.15670
C626        C  0.18156806  0.71741337  0.11036411    -0.30840
H627        H  0.22439192  0.70441189  0.14674910     0.13360
H628        H  0.15143768  0.72040111  0.10516935     0.13930
C629        C  0.07036314  0.53443808  0.10915480    -0.15670
C630        C  0.05891866  0.55559572  0.13962992    -0.30840
H631        H  0.09954733  0.52039951  0.10481013     0.13360
H632        H  0.02970399  0.57037512  0.14312944     0.13930
C633        C  0.18305907  0.57339698  0.39045263    -0.15670
C634        C  0.19369591  0.59910382  0.36077091    -0.30840
H635        H  0.15449126  0.55495306  0.39327210     0.13360
H636        H  0.22232312  0.61655884  0.35702492     0.13930
C637        C  0.05377027  0.64746036  0.36036744    -0.15670
C638        C  0.06505143  0.66534577  0.39147862    -0.30840
H639        H  0.02423065  0.63690362  0.35531517     0.13360
H640        H  0.09471027  0.67633051  0.39578544     0.13930
C641        C  0.19165339  0.22949604  0.11414198    -0.15670
C642        C  0.20086743  0.19596753  0.14176111    -0.30840
H643        H  0.16425959  0.25239413  0.11237650     0.13360
H644        H  0.22789949  0.17161748  0.14247013     0.13930
C645        C  0.07253413  0.03571310  0.10750306    -0.15670
C646        C  0.06084652  0.05032547  0.13903756    -0.30840
H647        H  0.10227388  0.02738611  0.10198253     0.13360
H648        H  0.03098188  0.05902121  0.14386045     0.13930
C649        C  0.11028684  0.89778318  0.25925434    -0.15670
C650        C  0.13798022  0.85460121  0.25951684    -0.30840
H651        H  0.08072983  0.88374987  0.26056957     0.13360
H652        H  0.16745630  0.86891108  0.26108076     0.13930
C653        C  0.11356034  0.39636745  0.25508389    -0.15670
C654        C  0.14212477  0.35471595  0.25448018    -0.30840
H655        H  0.08436622  0.38049408  0.25693486     0.13360
H656        H  0.17135222  0.37048990  0.25571486     0.13930
C657        C  0.20261841  0.09868787  0.35778550    -0.15670
C658        C  0.19096843  0.08280077  0.38926485    -0.30840
H659        H  0.23242583  0.10448485  0.35176260     0.13360
H660        H  0.16059586  0.07914004  0.39370905     0.13930
C661        C  0.07451350  0.19363826  0.38909594    -0.15670
C662        C  0.06400087  0.15945442  0.36209904    -0.30840
H663        H  0.10120015  0.21916160  0.38862252     0.13360
H664        H  0.03691277  0.13519711  0.36171643     0.13930
C665        C  0.30108224  0.79983862  0.14220256    -0.15670
C666        C  0.31429220  0.77972784  0.11213420    -0.30840
H667        H  0.27166064  0.81410677  0.14475230     0.13360
H668        H  0.34382022  0.76667350  0.10890627     0.13930
C669        C  0.42924934  0.97584483  0.10960087    -0.15670
C670        C  0.43938001  0.94873477  0.13894936    -0.30840
H671        H  0.40080264  0.99398095  0.10605239     0.13360
H672        H  0.46777919  0.92978199  0.14162248     0.13930
C673        C  0.49655392  0.78101405  0.24407214    -0.15670
C674        C  0.00174257  0.71029255  0.25705080    -0.30840
H675        H  0.51545475  0.79853333  0.22423520     0.13360
H676        H  0.98028302  0.68469464  0.24288956     0.13930
C677        C  0.24815471  0.02922932  0.25850326    -0.15670
C678        C  0.25431720  0.96751291  0.26282456    -0.30840
H679        H  0.27166887  0.06032875  0.25229329     0.13360
H680        H  0.23068578  0.93483522  0.26438532     0.13930
C681        C  0.30481201  0.89819220  0.35933947    -0.15670
C682        C  0.31562258  0.91686257  0.39039771    -0.30840
H683        H  0.27529221  0.88897227  0.35361493     0.13360
H684        H  0.34578155  0.92356879  0.39474474     0.13930
C685        C  0.45114481  0.84585224  0.35669474    -0.15670
C686        C  0.43903378  0.82904363  0.38793299    -0.30840
H687        H  0.48089946  0.85426097  0.35140873     0.13360
H688        H  0.40868450  0.82276105  0.39159644     0.13930
C689        C  0.31945435  0.28969600  0.13572822    -0.15670
C690        C  0.33216689  0.28003457  0.10378066    -0.30840
H691        H  0.28892223  0.29014059  0.13969912     0.13360
H692        H  0.36219657  0.27805581  0.09795438     0.13930
C693        C  0.43851159  0.46205043  0.14081044    -0.15670
C694        C  0.42708107  0.47718296  0.10937624    -0.30840
H695        H  0.46882843  0.46021756  0.14560239     0.13360
H696        H  0.39726741  0.48098626  0.10315764     0.13930
C697        C  0.49358747  0.26470057  0.26877355    -0.15670
C698        C  0.00570795  0.21232498  0.25678194    -0.30840
H699        H  0.51537009  0.29268305  0.28102678     0.13360
H700        H  0.98397117  0.18425237  0.24444997     0.13930
C701        C  0.38990676  0.59872816  0.24082343    -0.15670
C702        C  0.36662212  0.64069215  0.25596592    -0.30840
H703        H  0.41431593  0.61429351  0.22614695     0.13360
H704        H  0.34298017  0.62411357  0.27137280     0.13930
C705        C  0.36052789  0.14880621  0.24338170    -0.15670
C706        C  0.38545804  0.10673604  0.25603375    -0.30840
H707        H  0.33375718  0.13343340  0.23272222     0.13360
H708        H  0.41116669  0.12309625  0.26829681     0.13930
C709        C  0.25580236  0.47635403  0.26558852    -0.15670
C710        C  0.24835908  0.53696725  0.25852559    -0.30840
H711        H  0.23247323  0.44366011  0.26933199     0.13360
H712        H  0.27124873  0.56764146  0.25018958     0.13930
C713        C  0.30718518  0.40574488  0.35873374    -0.15670
C714        C  0.31994234  0.42136307  0.38966273    -0.30840
H715        H  0.27729914  0.39679878  0.35444719     0.13360
H716        H  0.34987431  0.43108110  0.39328505     0.13930
C717        C  0.42872094  0.32666959  0.39029359    -0.15670
C718        C  0.44103624  0.34599395  0.35975681    -0.30840
H719        H  0.39924358  0.31323681  0.39367981     0.13360
H720        H  0.47055944  0.35837908  0.35568283     0.13930
O721        O  0.92093399  0.38493077  0.30713940    -0.79370
O722        O  0.93187485  0.40714728  0.19191660    -0.79390
O723        O  0.92883135  0.27443792  0.27544520    -0.79400
O724        O  0.85670536  0.51006705  0.22512966    -0.79340
O725        O  0.95509015  0.33784527  0.24075246    -0.79470
O726        O  0.89761015  0.50010522  0.26857360    -0.79390
O727        O  0.87875258  0.43872811  0.16914608    -0.79370
O728        O  0.89239170  0.30069762  0.32993687    -0.79410
C729        C  0.91828229  0.34319272  0.33143735     1.10320
C730        C  0.91476969  0.43696225  0.16930291     1.10200
C731        C  0.95855629  0.29591114  0.26238383     1.10340
C732        C  0.88111678  0.53360465  0.24588790     1.10220
O733        O  0.82338829  0.46923642  0.27605922    -0.79370
O734        O  0.89591601  0.23811097  0.22368334    -0.79450
O735        O  0.83174596  0.36017692  0.30759579    -0.79380
O736        O  0.82389416  0.34238314  0.18889937    -0.79360
O737        O  0.87820903  0.31298248  0.16731085    -0.79420
O738        O  0.86028969  0.44410572  0.33027855    -0.79380
O739        O  0.79781458  0.40954407  0.23890954    -0.79340
O740        O  0.85482332  0.24635220  0.26759683    -0.79410
Co741      Co  0.87293337  0.42154331  0.28469787     1.51530
Co742      Co  0.91319820  0.32672988  0.20840520     1.51690
Co743      Co  0.87971291  0.32377417  0.28448037     1.51570
Co744      Co  0.84121223  0.42199693  0.20803720     1.51470
O745        O  0.87649683  0.37335089  0.23965558    -1.41310
C746        C  0.79403464  0.44931709  0.26180848     1.10250
C747        C  0.87116279  0.21395695  0.24420861     1.10340
C748        C  0.83450867  0.40146744  0.33208308     1.10270
C749        C  0.84224202  0.31538192  0.16578334     1.10250
O750        O  0.85831674  0.00992980  0.22373099    -0.79370
O751        O  0.92554992  0.77378704  0.27648707    -0.79390
O752        O  0.91886934  0.88372938  0.30860212    -0.79400
O753        O  0.93207465  0.90470960  0.19220924    -0.79340
O754        O  0.88782412  0.80014254  0.32956894    -0.79470
O755        O  0.87940094  0.93658367  0.16868679    -0.79390
O756        O  0.95361529  0.83572459  0.24205002    -0.79370
O757        O  0.89957220  0.99927161  0.26686792    -0.79410
C758        C  0.88339486  0.03290561  0.24405055     1.10320
C759        C  0.95581495  0.79418669  0.26404732     1.10200
C760        C  0.91380541  0.84210816  0.33279693     1.10340
C761        C  0.91543259  0.93441243  0.16925509     1.10220
O762        O  0.82344434  0.84203952  0.18976791    -0.79370
O763        O  0.83057610  0.86572156  0.30814675    -0.79450
O764        O  0.82440736  0.97295613  0.27422939    -0.79380
O765        O  0.89378532  0.73762915  0.22468504    -0.79360
O766        O  0.85126519  0.74861833  0.26731029    -0.79420
O767        O  0.79855863  0.91018769  0.23893722    -0.79380
O768        O  0.87749238  0.81174975  0.16807964    -0.79340
O769        O  0.86097243  0.95020416  0.32843866    -0.79410
Co770      Co  0.84159230  0.92179288  0.20766350     1.51530
Co771      Co  0.87729445  0.82503256  0.28454272     1.51690
Co772      Co  0.87286923  0.92334484  0.28395555     1.51570
Co773      Co  0.91236366  0.82526391  0.20910288     1.51470
O774        O  0.87608827  0.87365404  0.23964131    -1.41310
C775        C  0.84151205  0.81380530  0.16702522     1.10250
C776        C  0.83505972  0.90822430  0.33196499     1.10340
C777        C  0.79492264  0.95116630  0.26112689     1.10270
C778        C  0.86812789  0.71482602  0.24475478     1.10250
O779        O  0.60613823  0.26528806  0.22962333    -0.79370
O780        O  0.68382671  0.04258535  0.27505393    -0.79390
O781        O  0.67024291  0.14264480  0.30712356    -0.79400
O782        O  0.66569765  0.11057666  0.16832904    -0.79340
O783        O  0.64337416  0.06003704  0.33109377    -0.79470
O784        O  0.65149307  0.20773995  0.18294050    -0.79390
O785        O  0.70173182  0.07815978  0.22550469    -0.79370
O786        O  0.64678500  0.24691002  0.27042688    -0.79410
C787        C  0.63038555  0.28458684  0.25077667     1.10320
C788        C  0.70988129  0.05583962  0.25395249     1.10200
C789        C  0.66846364  0.10317367  0.33230420     1.10340
C790        C  0.67093417  0.16904294  0.16597393     1.10220
O791        O  0.59125642  0.12333843  0.16634769    -0.79370
O792        O  0.58072569  0.10975784  0.30669221    -0.79450
O793        O  0.56783579  0.20483002  0.27020845    -0.79380
O794        O  0.64721916  0.97706719  0.23601158    -0.79360
O795        O  0.60550209  0.00069360  0.27556068    -0.79420
O796        O  0.55192642  0.16422958  0.22124269    -0.79380
O797        O  0.60442912  0.02835552  0.18537259    -0.79340
O798        O  0.60676905  0.19591003  0.32743676    -0.79410
Co799      Co  0.60213318  0.18450371  0.20329644     1.51530
Co800      Co  0.63103542  0.08080846  0.28485057     1.51690
Co801      Co  0.62056223  0.16850226  0.28272055     1.51570
Co802      Co  0.65267165  0.05433188  0.20676418     1.51470
O803        O  0.62645901  0.12125514  0.23728228    -1.41310
C804        C  0.58644064  0.06454620  0.16578151     1.10250
C805        C  0.58206445  0.15232783  0.33023926     1.10340
C806        C  0.54262511  0.19040233  0.24857349     1.10270
C807        C  0.62261904  0.96059690  0.25777229     1.10250
O808        O  0.64147402  0.47924770  0.22934900    -0.79370
O809        O  0.57110905  0.70903588  0.27698173    -0.79390
O810        O  0.57950606  0.60526726  0.30730696    -0.79400
O811        O  0.58548456  0.64008530  0.16971528    -0.79340
O812        O  0.60902970  0.68411568  0.33223645    -0.79470
O813        O  0.59699319  0.54132236  0.18374382    -0.79390
O814        O  0.55105013  0.68149958  0.22666962    -0.79370
O815        O  0.60057838  0.49953452  0.26981680    -0.79410
C816        C  0.61673262  0.46095137  0.25041844     1.10320
C817        C  0.54465542  0.70356485  0.25572059     1.10200
C818        C  0.58204471  0.64404099  0.33280641     1.10340
C819        C  0.57961751  0.58184944  0.16636521     1.10220
O820        O  0.65891345  0.61924661  0.16615452    -0.79370
O821        O  0.67024002  0.62987065  0.30742800    -0.79450
O822        O  0.68119476  0.53674707  0.26965335    -0.79380
O823        O  0.61083388  0.77071073  0.23671590    -0.79360
O824        O  0.64995404  0.74319568  0.27744247    -0.79420
O825        O  0.69752361  0.57673278  0.22048679    -0.79380
O826        O  0.65115491  0.71461412  0.18632616    -0.79340
O827        O  0.64100879  0.54527952  0.32678873    -0.79410
Co828      Co  0.64687250  0.56000788  0.20341406     1.51530
Co829      Co  0.62160220  0.66463581  0.28583294     1.51690
Co830      Co  0.62879580  0.57582129  0.28261953     1.51570
Co831      Co  0.60148755  0.69545292  0.20762363     1.51470
O832        O  0.62454970  0.62500922  0.23782096    -1.41310
C833        C  0.66785766  0.67644366  0.16687206     1.10250
C834        C  0.66657747  0.58702318  0.33061480     1.10340
C835        C  0.70657025  0.55028213  0.24769687     1.10270
C836        C  0.63500447  0.78478725  0.25906039     1.10250
O837        O  0.74229617  0.18498859  0.08152191    -0.79370
O838        O  0.71943445  0.33670888  0.93354555    -0.79390
O839        O  0.73176648  0.37489291  0.02326833    -0.79400
O840        O  0.67259425  0.20260714  0.98225491    -0.79340
O841        O  0.76679759  0.39417889  0.97807136    -0.79470
O842        O  0.69677003  0.16734877  0.02957786    -0.79390
O843        O  0.70211988  0.23942360  0.92207909    -0.79370
O844        O  0.71257856  0.26768526  0.06077562    -0.79410
C845        C  0.71697238  0.22732242  0.08519105     1.10320
C846        C  0.69932462  0.29795931  0.91744098     1.10200
C847        C  0.74551825  0.41312367  0.00198499     1.10340
C848        C  0.66829852  0.17801002  0.01095809     1.10220
O849        O  0.77358777  0.12428258  0.02253296    -0.79370
O850        O  0.82064752  0.29346765  0.96569528    -0.79450
O851        O  0.77766743  0.32211198  0.07602063    -0.79380
O852        O  0.76575383  0.15807662  0.93344342    -0.79360
O853        O  0.77784299  0.25282700  0.91361978    -0.79420
O854        O  0.80256231  0.23704526  0.05299482    -0.79380
O855        O  0.72872325  0.10370819  0.98562923    -0.79340
O856        O  0.80912443  0.33415321  0.01558334    -0.79410
Co857      Co  0.75013381  0.20637198  0.03471280     1.51530
Co858      Co  0.76952926  0.31335046  0.95138610     1.51690
Co859      Co  0.75906072  0.29572893  0.03249335     1.51570
Co860      Co  0.71973677  0.18242389  0.95875129     1.51470
O861        O  0.74855407  0.24935833  0.98732978    -1.41310
C862        C  0.75502234  0.08514787  0.00490705     1.10250
C863        C  0.83188900  0.32212072  0.99145994     1.10340
C864        C  0.80316306  0.27968202  0.07681583     1.10270
C865        C  0.78226049  0.19406968  0.91274129     1.10250
O866        O  0.74147182  0.68312110  0.08325622    -0.79370
O867        O  0.74746201  0.80382464  0.91768355    -0.79390
O868        O  0.73345991  0.87599406  0.01875312    -0.79400
O869        O  0.67257658  0.71143246  0.99496509    -0.79340
O870        O  0.76971850  0.87977186  0.97126781    -0.79470
O871        O  0.70064932  0.65445806  0.03184925    -0.79390
O872        O  0.69424665  0.77682421  0.94249735    -0.79370
O873        O  0.71180342  0.76573903  0.06058659    -0.79410
C874        C  0.71574327  0.72575258  0.08544486     1.10320
C875        C  0.71144010  0.80270738  0.91829854     1.10200
C876        C  0.74756349  0.90582381  0.99339512     1.10340
C877        C  0.67042853  0.67134765  0.01788760     1.10220
O878        O  0.77458338  0.62516575  0.02017384    -0.79370
O879        O  0.82889946  0.77841444  0.98630860    -0.79450
O880        O  0.77516004  0.82475128  0.07840937    -0.79380
O881        O  0.74688886  0.67958466  0.92007536    -0.79360
O882        O  0.80188922  0.70866355  0.93970769    -0.79420
O883        O  0.80120743  0.73905045  0.05559331    -0.79380
O884        O  0.73085744  0.61273687  0.97901315    -0.79340
O885        O  0.80663964  0.84561952  0.02098618    -0.79410
Co886      Co  0.75081245  0.70303038  0.03666662     1.51530
Co887      Co  0.78534218  0.79045062  0.95630104     1.51690
Co888      Co  0.75837801  0.79884250  0.03439006     1.51570
Co889      Co  0.71315576  0.69838705  0.96155190     1.51470
O890        O  0.75072412  0.74796576  0.99046154    -1.41310
C891        C  0.75716411  0.59129234  0.99839026     1.10250
C892        C  0.83469974  0.82188717  0.00648448     1.10340
C893        C  0.80094073  0.78219303  0.07920593     1.10270
C894        C  0.78283673  0.67912181  0.91825519     1.10250
O895        O  0.98445133  0.94087969  0.08196611    -0.79370
O896        O  0.96789297  0.09276267  0.93599092    -0.79390
O897        O  0.97668218  0.12856111  0.02385101    -0.79400
O898        O  0.92241605  0.95861701  0.97958686    -0.79340
O899        O  0.01478939  0.15035666  0.98131747    -0.79470
O900        O  0.94398227  0.92099633  0.02719069    -0.79390
O901        O  0.95420591  0.99553076  0.92100722    -0.79370
O902        O  0.95544089  0.02200604  0.05896611    -0.79410
C903        C  0.95785027  0.98151337  0.08355753     1.10320
C904        C  0.94889884  0.05397887  0.91881901     1.10200
C905        C  0.99203038  0.16778019  0.00432859     1.10340
C906        C  0.91655088  0.93396933  0.00795345     1.10220
O907        O  0.52023096  0.88121235  0.02117930    -0.79370
O908        O  0.57344460  0.05018357  0.97395673    -0.79450
O909        O  0.51773045  0.06963669  0.08033909    -0.79380
O910        O  0.52364713  0.91824491  0.93416249    -0.79360
O911        O  0.53675234  0.01490139  0.91778459    -0.79420
O912        O  0.54414726  0.98678879  0.05623614    -0.79380
O913        O  0.47876037  0.86116493  0.98135265    -0.79340
O914        O  0.55693620  0.08726291  0.02353593    -0.79410
Co915      Co  0.99570627  0.96269375  0.03541367     1.51530
Co916      Co  0.52411790  0.07236150  0.95570230     1.51690
Co917      Co  0.50445286  0.04796760  0.03448630     1.51570
Co918      Co  0.97065493  0.93838248  0.95781387     1.51470
O919        O  0.99740222  0.00501127  0.98801047    -1.41310
C920        C  0.50350813  0.84269873  0.00220717     1.10250
C921        C  0.58234075  0.07470571  0.00166174     1.10340
C922        C  0.54276737  0.02646537  0.08129776     1.10270
C923        C  0.54270489  0.95657000  0.91658346     1.10250
O924        O  0.51545039  0.57895329  0.07754025    -0.79370
O925        O  0.52034047  0.41330420  0.93336080    -0.79390
O926        O  0.52375094  0.38316750  0.02599876    -0.79400
O927        O  0.57078715  0.55199749  0.96983736    -0.79340
O928        O  0.48379972  0.35744829  0.98534269    -0.79470
O929        O  0.55567493  0.58916969  0.02003631    -0.79550
O930        O  0.53129233  0.50988742  0.91560565    -0.79370
O931        O  0.54458331  0.49530658  0.05725144    -0.79410
C932        C  0.54114808  0.53740337  0.08084865     1.10320
C933        C  0.53636810  0.45135381  0.91346723     1.10200
C934        C  0.50833134  0.34247211  0.00727747     1.10340
C935        C  0.58038600  0.57827453  0.99701091     1.10220
O936        O  0.97651534  0.62769978  0.02378897    -0.79370
O937        O  0.92343734  0.45045812  0.97776171    -0.79450
O938        O  0.98305387  0.43998297  0.08201077    -0.79380
O939        O  0.96800638  0.59255504  0.93732407    -0.79360
O940        O  0.95576107  0.49520099  0.92105642    -0.79420
O941        O  0.95422784  0.52059091  0.05821547    -0.79380
O942        O  0.01602206  0.65005859  0.98258174    -0.79340
O943        O  0.94448687  0.41812332  0.02678782    -0.79410
Co944      Co  0.50310530  0.54995531  0.03290963     1.51530
Co945      Co  0.97282076  0.43659963  0.95709340     1.51690
Co946      Co  0.99537724  0.46128384  0.03565465     1.51570
Co947      Co  0.51991130  0.56854637  0.95355318     1.51470
O948        O  0.99761879  0.50386031  0.98820736    -1.41310
C949        C  0.99245641  0.66736024  0.00490367     1.10250
C950        C  0.91772839  0.42497625  0.00601482     1.10340
C951        C  0.95635974  0.48052946  0.08304546     1.10270
C952        C  0.94970513  0.55362779  0.91954964     1.10250
O953        O  0.91243498  0.14055982  0.80990844    -0.79370
O954        O  0.91612164  0.10116668  0.67057784    -0.79390
O955        O  0.92585938  0.03858101  0.77972151    -0.79400
O956        O  0.86034539  0.26575837  0.72708537    -0.79340
O957        O  0.94840254  0.06326176  0.72941916    -0.79470
O958        O  0.89592038  0.24577190  0.77147808    -0.79390
O959        O  0.90484257  0.20074439  0.68274653    -0.79370
O960        O  0.88114822  0.06096781  0.83257682    -0.79410
C961        C  0.90722988  0.10226434  0.83517084     1.10320
C962        C  0.92204612  0.15907365  0.66595108     1.10200
C963        C  0.95343693  0.04256891  0.75900853     1.10340
C964        C  0.88263292  0.28393066  0.75023453     1.10220
O965        O  0.81632170  0.21230582  0.76625002    -0.79370
O966        O  0.88940717  0.97414884  0.73885370    -0.79450
O967        O  0.82253582  0.11573126  0.80367627    -0.79380
O968        O  0.84300528  0.12232473  0.66549486    -0.79360
O969        O  0.84978013  0.02819370  0.68756547    -0.79420
O970        O  0.84963136  0.20002196  0.82578845    -0.79380
O971        O  0.80300652  0.16920445  0.71753693    -0.79340
O972        O  0.84591020  0.00209258  0.77563703    -0.79410
Co973      Co  0.86614195  0.17027659  0.78230265     1.51530
Co974      Co  0.89884737  0.04841508  0.70925144     1.51690
Co975      Co  0.87343837  0.08099398  0.78558336     1.51570
Co976      Co  0.85435945  0.18402173  0.70178046     1.51470
O977        O  0.87474165  0.12077799  0.73776327    -1.41310
C978        C  0.79268780  0.19974567  0.74301006     1.10250
C979        C  0.86290956  0.96010417  0.75901839     1.10340
C980        C  0.82346349  0.15868231  0.82709387     1.10270
C981        C  0.83353959  0.06538145  0.66739798     1.10250
O982        O  0.82314532  0.60382282  0.80610121    -0.79370
O983        O  0.83961487  0.63016201  0.66746027    -0.79390
O984        O  0.81339221  0.70277703  0.77208617    -0.79400
O985        O  0.89595935  0.48028293  0.73410833    -0.79340
O986        O  0.79887802  0.66409719  0.72253696    -0.79470
O987        O  0.85118845  0.49812830  0.77180539    -0.79390
O988        O  0.85591242  0.53447156  0.68334293    -0.79370
O989        O  0.84788960  0.68753667  0.83050115    -0.79410
C990        C  0.82253423  0.64472939  0.83069358     1.10320
C991        C  0.83744727  0.57122660  0.66452885     1.10200
C992        C  0.78889035  0.68851268  0.75005050     1.10340
C993        C  0.86962887  0.46065096  0.75331374     1.10220
O994        O  0.92936068  0.54204736  0.77664126    -0.79370
O995        O  0.85229895  0.76708099  0.73458851    -0.79450
O996        O  0.91291836  0.63790116  0.81072475    -0.79380
O997        O  0.91644720  0.62079366  0.67124406    -0.79360
O998        O  0.89796764  0.71596921  0.68608579    -0.79420
O999        O  0.88531270  0.55273215  0.83119386    -0.79380
O1000       O  0.94970313  0.58414362  0.72934341    -0.79340
O1001       O  0.89075011  0.74481989  0.77677343    -0.79410
Co1002     Co  0.87528343  0.57786463  0.78520420     1.51530
Co1003     Co  0.84901586  0.68854695  0.70586057     1.51690
Co1004     Co  0.86469013  0.66511909  0.78551649     1.51570
Co1005     Co  0.90218791  0.56057239  0.70757600     1.51470
O1006       O  0.87342401  0.62344336  0.73878424    -1.41310
C1007       C  0.95652723  0.55821794  0.75719627     1.10250
C1008       C  0.87513455  0.78421512  0.75759614     1.10340
C1009       C  0.90970286  0.59661596  0.83476156     1.10270
C1010       C  0.91885212  0.67978265  0.66885199     1.10250
O1011       O  0.57368099  0.36220018  0.80428015    -0.79370
O1012       O  0.59341831  0.38016866  0.66366654    -0.79390
O1013       O  0.56362774  0.45750308  0.76708197    -0.79400
O1014       O  0.64319213  0.22906415  0.73337557    -0.79340
O1015       O  0.55088617  0.41916703  0.71688601    -0.79470
O1016       O  0.59980846  0.24984890  0.77202250    -0.79390
O1017       O  0.60498517  0.28441833  0.68202922    -0.79370
O1018       O  0.59965622  0.44829917  0.82539346    -0.79410
C1019       C  0.57494040  0.40486503  0.82797987     1.10320
C1020       C  0.58805942  0.32164765  0.66238837     1.10200
C1021       C  0.53996967  0.44518496  0.74374155     1.10340
C1022       C  0.61771987  0.21076166  0.75377509     1.10220
O1023       O  0.67721915  0.29167954  0.77677810    -0.79370
O1024       O  0.60421346  0.51991413  0.72865049    -0.79450
O1025       O  0.66279831  0.39227360  0.80890287    -0.79380
O1026       O  0.66851699  0.36613078  0.67016117    -0.79360
O1027       O  0.65228355  0.46284996  0.68430785    -0.79420
O1028       O  0.63367653  0.30868325  0.82991600    -0.79380
O1029       O  0.69985378  0.32579122  0.72843264    -0.79340
O1030       O  0.64199317  0.50078931  0.77142953    -0.79410
Co1031     Co  0.62453377  0.33106919  0.78369930     1.51530
Co1032     Co  0.60204043  0.43928080  0.70190986     1.51690
Co1033     Co  0.61544820  0.42082486  0.78170248     1.51570
Co1034     Co  0.65177035  0.30761918  0.70642019     1.51470
O1035       O  0.62397372  0.37413922  0.73645398    -1.41310
C1036       C  0.70492568  0.30053413  0.75685210     1.10250
C1037       C  0.62642196  0.53936057  0.75151552     1.10340
C1038       C  0.65863242  0.35164041  0.83344928     1.10270
C1039       C  0.67243847  0.42490285  0.66761445     1.10250
O1040       O  0.67310571  0.88265180  0.80668304    -0.79370
O1041       O  0.67590819  0.91076036  0.69012736    -0.79390
O1042       O  0.67662242  0.77491246  0.77255078    -0.79400
O1043       O  0.60525573  0.01090696  0.72868876    -0.79340
O1044       O  0.70150601  0.83958499  0.73761136    -0.79470
O1045       O  0.64875624  0.99826121  0.77002494    -0.79390
O1046       O  0.62124717  0.94141738  0.67030201    -0.79370
O1047       O  0.64469891  0.79850277  0.82929500    -0.79410
C1048       C  0.67127619  0.83982008  0.83048621     1.10320
C1049       C  0.65723725  0.93985045  0.66822435     1.10200
C1050       C  0.70559225  0.79675273  0.75861385     1.10340
C1051       C  0.63116235  0.03253340  0.74852729     1.10220
O1052       O  0.57461063  0.97161793  0.78100870    -0.79370
O1053       O  0.64025675  0.74237019  0.72251730    -0.79450
O1054       O  0.58351794  0.86128145  0.81090077    -0.79380
O1055       O  0.56722865  0.84626345  0.69395234    -0.79360
O1056       O  0.61970886  0.81799673  0.66858674    -0.79420
O1057       O  0.61473385  0.94323331  0.83280018    -0.79380
O1058       O  0.54622237  0.91257624  0.74539874    -0.79340
O1059       O  0.60255643  0.74936535  0.76897983    -0.79410
Co1060     Co  0.62396336  0.92128112  0.78671838     1.51530
Co1061     Co  0.65780618  0.83019834  0.70724560     1.51690
Co1062     Co  0.62936280  0.82475645  0.78505228     1.51570
Co1063     Co  0.58691663  0.92483722  0.71186153     1.51470
O1064       O  0.62388045  0.87545777  0.74096263    -1.41310
C1065       C  0.54425081  0.95342979  0.76783546     1.10250
C1066       C  0.61666828  0.71828748  0.74406483     1.10340
C1067       C  0.58839068  0.90168618  0.83545578     1.10270
C1068       C  0.58370085  0.81975042  0.66969369     1.10250
O1069       O  0.77678962  0.92101116  0.43366924    -0.79370
O1070       O  0.75955823  0.06122748  0.58506801    -0.79390
O1071       O  0.82522661  0.05554112  0.48135257    -0.79400
O1072       O  0.76738245  0.87781824  0.52307055    -0.79340
O1073       O  0.80362947  0.08247421  0.53152155    -0.79470
O1074       O  0.73082486  0.86050714  0.47895620    -0.79390
O1075       O  0.78812758  0.98057703  0.56095387    -0.79370
O1076       O  0.79258470  0.01932373  0.42240419    -0.79410
C1077       C  0.79581557  0.96097544  0.41714869     1.10320
C1078       C  0.78502704  0.01874880  0.58646608     1.10200
C1079       C  0.83095019  0.07706792  0.51063692     1.10340
C1080       C  0.75332502  0.84086310  0.50157823     1.10220
O1081       O  0.67632009  0.96157860  0.46964153    -0.79370
O1082       O  0.72553934  0.12455187  0.52858727    -0.79450
O1083       O  0.72867034  0.09855996  0.43766843    -0.79380
O1084       O  0.72253082  0.92729967  0.57822493    -0.79360
O1085       O  0.69788558  0.01330971  0.55645190    -0.79420
O1086       O  0.71742964  0.00452812  0.41669166    -0.79380
O1087       O  0.68932345  0.91853250  0.51850379    -0.79340
O1088       O  0.76843597  0.14940644  0.49027223    -0.79410
Co1089     Co  0.72714659  0.94252394  0.45344153     1.51530
Co1090     Co  0.75015365  0.04326699  0.53784661     1.51690
Co1091     Co  0.77637621  0.07417832  0.46070762     1.51570
Co1092     Co  0.74021732  0.95569014  0.53429592     1.51470
O1093       O  0.74967178  0.00438435  0.48946658    -1.41310
C1094       C  0.66558214  0.93333064  0.49581467     1.10250
C1095       C  0.74340180  0.16517193  0.51162797     1.10340
C1096       C  0.71190018  0.06303522  0.41688644     1.10270
C1097       C  0.69708899  0.96982901  0.57962828     1.10250
O1098       O  0.72019214  0.58308027  0.43356091    -0.79370
O1099       O  0.74093678  0.43940336  0.58221649    -0.79390
O1100       O  0.67486748  0.44626784  0.47954212    -0.79400
O1101       O  0.72752257  0.62563746  0.52211894    -0.79340
O1102       O  0.69679895  0.41896147  0.52936797    -0.79470
O1103       O  0.76444926  0.64577335  0.47832500    -0.79390
O1104       O  0.70993678  0.51973232  0.56046319    -0.79370
O1105       O  0.70758051  0.48415286  0.42088020    -0.79410
C1106       C  0.70252095  0.54232806  0.41666384     1.10320
C1107       C  0.71488398  0.48048282  0.58531611     1.10200
C1108       C  0.66947103  0.42439094  0.50881276     1.10340
C1109       C  0.74136661  0.66387417  0.50102677     1.10220
O1110       O  0.82092705  0.54786507  0.46853779    -0.79370
O1111       O  0.77605219  0.38188455  0.52531027    -0.79450
O1112       O  0.77273269  0.40877464  0.43623189    -0.79380
O1113       O  0.77275412  0.57834786  0.57665297    -0.79360
O1114       O  0.79992879  0.49437993  0.55425982    -0.79420
O1115       O  0.78158908  0.50375510  0.41549944    -0.79380
O1116       O  0.80697136  0.59075151  0.51731655    -0.79340
O1117       O  0.73294010  0.35453457  0.48822016    -0.79410
Co1118     Co  0.77015676  0.56451205  0.45250107     1.51530
Co1119     Co  0.74918230  0.46078454  0.53557870     1.51690
Co1120     Co  0.72414715  0.42992272  0.45896412     1.51570
Co1121     Co  0.75669050  0.54951832  0.53291789     1.51470
O1122       O  0.74876827  0.50098016  0.48794136    -1.41310
C1123       C  0.83099326  0.57739219  0.49437663     1.10250
C1124       C  0.75840279  0.34011816  0.50921369     1.10340
C1125       C  0.78901719  0.44584101  0.41579488     1.10270
C1126       C  0.79860041  0.53655572  0.57807800     1.10250
O1127       O  0.97806925  0.34529262  0.43758063    -0.79370
O1128       O  0.98627764  0.16895295  0.57632447    -0.79390
O1129       O  0.93008349  0.20587090  0.47083923    -0.79400
O1130       O  0.48039438  0.37630542  0.52204601    -0.79340
O1131       O  0.94550258  0.16284313  0.51937630    -0.79470
O1132       O  0.52000920  0.39606434  0.48026149    -0.79390
O1133       O  0.95759639  0.25487297  0.55854142    -0.79370
O1134       O  0.96837126  0.25097920  0.41634830    -0.79410
C1135       C  0.96183173  0.30924161  0.41675273     1.10320
C1136       C  0.96098278  0.21078111  0.58107206     1.10200
C1137       C  0.92069088  0.17601846  0.49697603     1.10340
C1138       C  0.49663637  0.41494381  0.50246849     1.10220
O1139       O  0.57328397  0.29432280  0.46972896    -0.79370
O1140       O  0.02612492  0.12545210  0.51830547    -0.79450
O1141       O  0.52063311  0.16142758  0.43243367    -0.79380
O1142       O  0.52065162  0.31980624  0.57685678    -0.79360
O1143       O  0.54614199  0.23447274  0.55423695    -0.79420
O1144       O  0.53411352  0.25742245  0.41503947    -0.79380
O1145       O  0.55861499  0.33347530  0.51933677    -0.79340
O1146       O  0.98531685  0.10717533  0.47777585    -0.79410
Co1147     Co  0.52345282  0.31637418  0.45289409     1.51530
Co1148     Co  0.99827037  0.20126291  0.53233460     1.51690
Co1149     Co  0.98024503  0.18932420  0.45285970     1.51570
Co1150     Co  0.50617072  0.29589979  0.53205805     1.51470
O1151       O  0.00265321  0.25233955  0.48808987    -1.41310
C1152       C  0.58312744  0.32095429  0.49659320     1.10250
C1153       C  0.00983051  0.08780331  0.49858223     1.10340
C1154       C  0.53911401  0.19880123  0.41378317     1.10270
C1155       C  0.54516204  0.27589349  0.57857737     1.10250
O1156       O  0.97206343  0.83049587  0.43390610    -0.79370
O1157       O  0.98924231  0.68984444  0.58420583    -0.79390
O1158       O  0.92527538  0.69705773  0.48107858    -0.79400
O1159       O  0.47433933  0.87411641  0.52068892    -0.79340
O1160       O  0.94630807  0.66818412  0.53084336    -0.79470
O1161       O  0.51418800  0.88749370  0.47626835    -0.79390
O1162       O  0.95994429  0.77029769  0.56081140    -0.79370
O1163       O  0.95761475  0.73192990  0.42206665    -0.79410
C1164       C  0.95338538  0.79026536  0.41743063     1.10320
C1165       C  0.96349857  0.73175261  0.58622659     1.10200
C1166       C  0.91933791  0.67451155  0.51005758     1.10340
C1167       C  0.48957488  0.90852162  0.49773544     1.10220
O1168       O  0.57674306  0.79470344  0.49008349    -0.79370
O1169       O  0.02468826  0.62855436  0.52788330    -0.79450
O1170       O  0.50429745  0.68342833  0.41990762    -0.79380
O1171       O  0.51365797  0.82079546  0.58199334    -0.79360
O1172       O  0.54497547  0.74138501  0.55821932    -0.79420
O1173       O  0.55621649  0.72679570  0.43956778    -0.79380
O1174       O  0.54869578  0.85063946  0.52759118    -0.79340
O1175       O  0.98202565  0.60201923  0.49005666    -0.79410
Co1176     Co  0.53414649  0.80275934  0.45874846     1.51530
Co1177     Co  0.99886639  0.70878887  0.53722002     1.51690
Co1178     Co  0.97385455  0.67748600  0.46040180     1.51570
Co1179     Co  0.50106121  0.79824993  0.53604351     1.51470
O1180       O  0.99984526  0.74751307  0.48896047    -1.41310
C1181       C  0.57866587  0.83435404  0.51310713     1.10250
C1182       C  0.00727966  0.58716528  0.51124479     1.10340
C1183       C  0.53995318  0.69170469  0.41859850     1.10270
C1184       C  0.54150564  0.78189636  0.58282287     1.10250
C1185       C  0.49007902  0.48310046  0.50594640    -0.15670
C1186       C  0.01501178  0.52030046  0.51660716    -0.30840
H1187       H  0.46234201  0.49926595  0.51423036     0.13360
H1188       H  0.04431786  0.50484761  0.51710013     0.13930
C1189       C  0.01720675  0.02022176  0.50087675    -0.15670
C1190       C  0.48150479  0.97643710  0.49764840    -0.30840
H1191       H  0.04634839  0.00390870  0.50043768     0.13360
H1192       H  0.45265059  0.99183898  0.49311296     0.13930
C1193       C  0.63275505  0.39491853  0.51668622    -0.15670
C1194       C  0.62218274  0.34480454  0.49815110    -0.30840
H1195       H  0.61398282  0.41597820  0.53545241     0.13360
H1196       H  0.64196704  0.32597416  0.47943722     0.13930
C1197       C  0.86946293  0.60330862  0.49436307    -0.15670
C1198       C  0.88249222  0.64510542  0.51708947    -0.30840
H1199       H  0.88715843  0.59122509  0.47255009     0.13360
H1200       H  0.86670802  0.65676160  0.54003192     0.13930
C1201       C  0.61446743  0.86692669  0.51954061    -0.15670
C1202       C  0.62639362  0.91016918  0.49704511    -0.30840
H1203       H  0.63244005  0.85102388  0.54019232     0.13360
H1204       H  0.60778395  0.92374561  0.47629128     0.13930
C1205       C  0.76129321  0.77342721  0.50358671    -0.15670
C1206       C  0.73302866  0.73114623  0.50380247    -0.30840
H1207       H  0.79061192  0.75812859  0.50468287     0.13360
H1208       H  0.70372535  0.74626831  0.50575860     0.13930
C1209       C  0.73661852  0.23235312  0.51672241    -0.15670
C1210       C  0.76563558  0.27340119  0.51525049    -0.30840
H1211       H  0.70758025  0.24882092  0.51875420     0.13360
H1212       H  0.79477285  0.25710091  0.51565217     0.13930
C1213       C  0.86836298  0.10524481  0.51839836    -0.15670
C1214       C  0.88168144  0.15044020  0.49750887    -0.30840
H1215       H  0.88453993  0.08922683  0.54018504     0.13360
H1216       H  0.86357665  0.16582580  0.47674176     0.13930
C1217       C  0.67946818  0.96541612  0.63932558    -0.15670
C1218       C  0.66783208  0.96790220  0.60680990    -0.30840
H1219       H  0.70963153  0.97108008  0.64404838     0.13360
H1220       H  0.63825061  0.96171716  0.60024343     0.13930
C1221       C  0.55899521  0.79853686  0.64178750    -0.15670
C1222       C  0.57032138  0.78636390  0.60989402    -0.30840
H1223       H  0.52871255  0.80080089  0.64687501     0.13360
H1224       H  0.60014615  0.78190338  0.60356518     0.13930
C1225       C  0.70021974  0.44693672  0.64287535    -0.15670
C1226       C  0.68985079  0.47960443  0.61526924    -0.30840
H1227       H  0.72769762  0.42400089  0.64344664     0.13360
H1228       H  0.66198424  0.50094900  0.61372142     0.13930
C1229       C  0.57199474  0.27490893  0.60713692    -0.15670
C1230       C  0.56102548  0.29918283  0.63715972    -0.30840
H1231       H  0.60081561  0.25874818  0.60309912     0.13360
H1232       H  0.53213414  0.31588847  0.64024681     0.13930
C1233       C  0.60879212  0.65049347  0.74150367    -0.15670
C1234       C  0.63221753  0.60791634  0.75579908    -0.30840
H1235       H  0.58450409  0.63549748  0.72671677     0.13360
H1236       H  0.65588537  0.62393541  0.77113278     0.13930
C1237       C  0.63835567  0.10063013  0.74827793    -0.15670
C1238       C  0.61095452  0.14231806  0.75667784    -0.30840
H1239       H  0.66672495  0.11670691  0.74191197     0.13360
H1240       H  0.58355270  0.12576671  0.76565738     0.13930
C1241       C  0.82561800  0.53699362  0.60628926    -0.15670
C1242       C  0.81262512  0.54734816  0.63793504    -0.30840
H1243       H  0.85572920  0.53272252  0.60109804     0.13360
H1244       H  0.78233482  0.55203333  0.64231272     0.13930
C1245       C  0.93696255  0.73201336  0.61537504    -0.15670
C1246       C  0.94691478  0.70373569  0.64455851    -0.30840
H1247       H  0.90848713  0.75008172  0.61196468     0.13360
H1248       H  0.97524742  0.68435276  0.64686670     0.13930
C1249       C  0.99582611  0.53856295  0.76400188    -0.15670
C1250       C  0.50086400  0.46950290  0.74477430    -0.30840
H1251       H  0.01848908  0.57153755  0.75812772     0.13360
H1252       H  0.48436028  0.46427882  0.72160127     0.13930
C1253       C  0.74973789  0.70979261  0.75406840    -0.15670
C1254       C  0.74285799  0.76903836  0.76402967    -0.30840
H1255       H  0.72709861  0.68132648  0.74343345     0.13360
H1256       H  0.76615693  0.80025024  0.77042046     0.13930
C1257       C  0.81230264  0.01734095  0.61460861    -0.15670
C1258       C  0.80375123  0.04427143  0.64445949    -0.30840
H1259       H  0.84047025  0.99863666  0.60996782     0.13360
H1260       H  0.77579128  0.06434089  0.64840619     0.13930
C1261       C  0.94809053  0.17570521  0.63862871    -0.15670
C1262       C  0.93665760  0.20845483  0.61139618    -0.30840
H1263       H  0.97495910  0.15086455  0.63800238     0.13360
H1264       H  0.90942898  0.23216732  0.61128601     0.13930
C1265       C  0.50779931  0.98493594  0.77450178    -0.15670
C1266       C  0.99032513  0.01403629  0.76755706    -0.30840
H1267       H  0.48604938  0.95918640  0.78833873     0.13360
H1268       H  0.00767799  0.03431879  0.78750426     0.13930
C1269       C  0.85412104  0.89329629  0.76348723    -0.15670
C1270       C  0.88244888  0.85116375  0.76235475    -0.30840
H1271       H  0.82478143  0.87826487  0.76524609     0.13360
H1272       H  0.91178586  0.86657160  0.76322169     0.13930
C1273       C  0.86209548  0.39290094  0.75489552    -0.15670
C1274       C  0.89060382  0.35119447  0.75343279    -0.30840
H1275       H  0.83294780  0.37686224  0.75696827     0.13360
H1276       H  0.91988641  0.36674328  0.75437549     0.13930
C1277       C  0.74167240  0.27099126  0.76409295    -0.15670
C1278       C  0.75451342  0.22725537  0.74225870    -0.30840
H1279       H  0.75743747  0.28383108  0.78673650     0.13360
H1280       H  0.73692820  0.21441101  0.72064085     0.13930
C1281       C  0.93449167  0.59830745  0.86457380    -0.15670
C1282       C  0.92247394  0.57423533  0.89420717    -0.30840
H1283       H  0.96324722  0.61583900  0.86175438     0.13360
H1284       H  0.89393740  0.55536667  0.89625711     0.13930
C1285       C  0.56187977  0.42957447  0.88679303    -0.15670
C1286       C  0.54924155  0.40480581  0.85748286    -0.30840
H1287       H  0.59090434  0.44634418  0.88845083     0.13360
H1288       H  0.52027264  0.38839948  0.85491557     0.13930
C1289       C  0.93212181  0.10315671  0.86503657    -0.15670
C1290       C  0.92117449  0.07459573  0.89385268    -0.30840
H1291       H  0.96036072  0.12302019  0.86264358     0.13360
H1292       H  0.89330103  0.05302720  0.89538649     0.13930
C1293       C  0.57148495  0.93551617  0.89255467    -0.15670
C1294       C  0.56223676  0.90315119  0.86460029    -0.30840
H1295       H  0.59885927  0.95875383  0.89401884     0.13360
H1296       H  0.53447177  0.88158665  0.86225016     0.13930
C1297       C  0.98499360  0.73455313  0.00922249    -0.15670
C1298       C  0.51121326  0.77526986  0.00499780    -0.30840
H1299       H  0.45351333  0.74864444  0.00695935     0.13360
H1300       H  0.04273705  0.76120845  0.01046212     0.13930
C1301       C  0.51636467  0.27558902  0.01169192    -0.15670
C1302       C  0.98523265  0.23485191  0.00892877    -0.30840
H1303       H  0.04327475  0.25927522  0.01239223     0.13360
H1304       H  0.45845211  0.25000335  0.01237968     0.13930
C1305       C  0.79313114  0.64508629  0.85772647    -0.15670
C1306       C  0.80478562  0.65051596  0.89011864    -0.30840
H1307       H  0.76351626  0.64999581  0.85102060     0.13360
H1308       H  0.83498081  0.64571539  0.89491763     0.13930
C1309       C  0.68761123  0.82408952  0.88975241    -0.15670
C1310       C  0.69971951  0.83653702  0.85799034    -0.30840
H1311       H  0.65720380  0.82166574  0.89420708     0.13360
H1312       H  0.72964371  0.84128407  0.85213384     0.13930
C1313       C  0.63413719  0.63806843  0.02397356    -0.15670
C1314       C  0.61948391  0.60353147  0.99848676    -0.30840
H1315       H  0.61895471  0.64446304  0.04783021     0.13360
H1316       H  0.63646610  0.59754934  0.97550541     0.13930
C1317       C  0.87892547  0.90896556  0.01537062    -0.15670
C1318       C  0.87289236  0.84751494  0.01010980    -0.30840
H1319       H  0.85538147  0.94128934  0.01856661     0.13360
H1320       H  0.89650202  0.81726106  0.00316017     0.13930
C1321       C  0.80739657  0.16908827  0.88656233    -0.15670
C1322       C  0.79537766  0.16103571  0.85453924    -0.30840
H1323       H  0.83755202  0.16927565  0.89201132     0.13360
H1324       H  0.76540499  0.16053824  0.84849534     0.13930
C1325       C  0.68310761  0.35158748  0.86383121    -0.15670
C1326       C  0.67247746  0.31830765  0.89140429    -0.30840
H1327       H  0.71057288  0.37453373  0.86277171     0.13360
H1328       H  0.64533440  0.29417508  0.89140529     0.13930
C1329       C  0.62182169  0.09528943  0.00576050    -0.15670
C1330       C  0.63115536  0.15097260  0.01961135    -0.30840
H1331       H  0.64318060  0.06972361  0.99128911     0.13360
H1332       H  0.60987980  0.18041368  0.03169981     0.13930
C1333       C  0.73864609  0.48114517  0.00565398    -0.15670
C1334       C  0.76529177  0.52365028  0.99692441    -0.30840
H1335       H  0.71170969  0.49674175  0.01611543     0.13360
H1336       H  0.79340410  0.50858197  0.98914122     0.13930
C1337       C  0.76181485  0.01640224  0.00796888    -0.15670
C1338       C  0.74068609  0.97399533  0.99065006    -0.30840
H1339       H  0.78412399  0.00012625  0.02477118     0.13360
H1340       H  0.71860644  0.98941580  0.97341053     0.13930
C1341       C  0.86985926  0.34972607  0.99041515    -0.15670
C1342       C  0.88155643  0.39362998  0.01252355    -0.30840
H1343       H  0.88769664  0.33793467  0.96866276     0.13360
H1344       H  0.86523713  0.40527420  0.03517365     0.13930
C1345       C  0.69747740  0.69653072  0.14324994    -0.15670
C1346       C  0.68888226  0.72586316  0.11416043    -0.30840
H1347       H  0.72500907  0.67442051  0.14603917     0.13360
H1348       H  0.66102869  0.74641674  0.11063412     0.13930
C1349       C  0.56594630  0.53794174  0.11063766    -0.15670
C1350       C  0.55338384  0.56333944  0.13978012    -0.30840
H1351       H  0.59453813  0.51952962  0.10853474     0.13360
H1352       H  0.52496663  0.58278621  0.14120469     0.13930
C1353       C  0.67716030  0.56052299  0.38949934    -0.15670
C1354       C  0.69064833  0.58621019  0.36077178    -0.30840
H1355       H  0.64872468  0.54094973  0.39023839     0.13360
H1356       H  0.71928212  0.60481979  0.35935922     0.13930
C1357       C  0.55343739  0.64655352  0.36055883    -0.15670
C1358       C  0.56462359  0.66578807  0.39152592    -0.30840
H1359       H  0.52378345  0.63828549  0.35502153     0.13360
H1360       H  0.59484887  0.67214108  0.39568348     0.13930
C1361       C  0.69144150  0.22628999  0.11492706    -0.15670
C1362       C  0.69966130  0.18939645  0.14152207    -0.30840
H1363       H  0.66468918  0.25133660  0.11383380     0.13360
H1364       H  0.72592590  0.16279764  0.14150868     0.13930
C1365       C  0.57035003  0.02482758  0.10925877    -0.15670
C1366       C  0.55934081  0.04045473  0.14090681    -0.30840
H1367       H  0.59993418  0.01561841  0.10352002     0.13360
H1368       H  0.52963718  0.05032993  0.14586965     0.13930
C1369       C  0.61506522  0.89363058  0.26262409    -0.15670
C1370       C  0.64341341  0.85156500  0.26399858    -0.30840
H1371       H  0.58573583  0.87809436  0.26302258     0.13360
H1372       H  0.67268532  0.86670393  0.26614759     0.13930
C1373       C  0.60901229  0.39352874  0.25329746    -0.15670
C1374       C  0.63770475  0.35213245  0.25327337    -0.30840
H1375       H  0.57983142  0.37754563  0.25497566     0.13360
H1376       H  0.66686301  0.36826982  0.25468462     0.13930
C1377       C  0.69593171  0.10437984  0.36045959    -0.15670
C1378       C  0.68489821  0.08753023  0.39196003    -0.30840
H1379       H  0.72551680  0.11405428  0.35489873     0.13360
H1380       H  0.65518684  0.07736011  0.39676357     0.13930
C1381       C  0.56649931  0.17634014  0.38882327    -0.15670
C1382       C  0.55540919  0.15227062  0.35897967    -0.30840
H1383       H  0.59537991  0.19326790  0.39165027     0.13360
H1384       H  0.52652771  0.13616150  0.35526767     0.13930
C1385       C  0.81852198  0.78980693  0.13851179    -0.15670
C1386       C  0.83016632  0.78429159  0.10608143    -0.30840
H1387       H  0.78822672  0.78685868  0.14351690     0.13360
H1388       H  0.85995144  0.78665115  0.09928686     0.13930
C1389       C  0.92909196  0.97772420  0.11102393    -0.15670
C1390       C  0.94019195  0.95917392  0.14201069    -0.30840
H1391       H  0.89943136  0.98552436  0.10535173     0.13360
H1392       H  0.97042740  0.95385903  0.14641201     0.13930
C1393       C  0.99264096  0.76547969  0.27153461    -0.15670
C1394       C  0.50776846  0.73224760  0.26314582    -0.30840
H1395       H  0.01469734  0.79524685  0.28207454     0.13360
H1396       H  0.49005537  0.71342697  0.28342600     0.13930
C1397       C  0.74926143  0.03685720  0.26007758    -0.15670
C1398       C  0.75725334  0.97713592  0.26842264    -0.30840
H1399       H  0.77172134  0.06723860  0.25057770     0.13360
H1400       H  0.73426849  0.94421211  0.27323931     0.13930
C1401       C  0.81036215  0.91015155  0.36231759    -0.15670
C1402       C  0.82180398  0.94216165  0.38996242    -0.30840
H1403       H  0.78266728  0.88795393  0.36163340     0.13360
H1404       H  0.84921960  0.96544259  0.38976108     0.13930
C1405       C  0.93828411  0.84084711  0.36303737    -0.15670
C1406       C  0.92700980  0.80885257  0.39078614    -0.30840
H1407       H  0.96592500  0.86322386  0.36207778     0.13360
H1408       H  0.89972240  0.78517522  0.39089697     0.13930
C1409       C  0.81950334  0.29341231  0.13635943    -0.15670
C1410       C  0.83182768  0.28090219  0.10451821    -0.30840
H1411       H  0.78901007  0.29597909  0.14028740     0.13360
H1412       H  0.86174916  0.27609786  0.09874723     0.13930
C1413       C  0.93897788  0.46253941  0.14191158    -0.15670
C1414       C  0.92754859  0.47750489  0.11045118    -0.30840
H1415       H  0.96930831  0.45977650  0.14650215     0.13360
H1416       H  0.89773955  0.48227331  0.10442693     0.13930
C1417       C  0.99633152  0.26914933  0.26927770    -0.15670
C1418       C  0.50288519  0.21092916  0.25273217    -0.30840
H1419       H  0.01852266  0.30094804  0.27763841     0.13360
H1420       H  0.48154513  0.18710008  0.23755281     0.13930
C1421       C  0.88855140  0.60269171  0.24481611    -0.15670
C1422       C  0.86031083  0.64587747  0.24348090    -0.30840
H1423       H  0.91755330  0.61863104  0.24793373     0.13360
H1424       H  0.83104346  0.63020910  0.24432155     0.13930
C1425       C  0.86336588  0.14515062  0.24227144    -0.15670
C1426       C  0.89145651  0.10171959  0.24271392    -0.30840
H1427       H  0.83410648  0.12963443  0.24376343     0.13360
H1428       H  0.92061532  0.11717927  0.24527741     0.13930
C1429       C  0.75652958  0.47752656  0.26839576    -0.15670
C1430       C  0.74633186  0.52952818  0.25124873    -0.30840
H1431       H  0.73552856  0.45038945  0.28238325     0.13360
H1432       H  0.76725204  0.55241246  0.23498282     0.13930
C1433       C  0.80686956  0.40247654  0.36028961    -0.15670
C1434       C  0.81712800  0.42369444  0.39108123    -0.30840
H1435       H  0.77772824  0.38901647  0.35538177     0.13360
H1436       H  0.84631003  0.43769810  0.39540727     0.13930
C1437       C  0.93534254  0.33349547  0.39137432    -0.15670
C1438       C  0.94637004  0.34108204  0.35888369    -0.30840
H1439       H  0.90539362  0.33331832  0.39781948     0.13360
H1440       H  0.97625211  0.34170758  0.35221472     0.13930
loop_ 
_geom_bond_atom_site_label_1 
_geom_bond_atom_site_label_2 
_geom_bond_distance 
_geom_bond_site_symmetry_2 
_ccdc_geom_bond_type 
O1            C9   1.303       .  A
O1          Co21   2.061       .  S
O2           C10   1.250       .  A
O2          Co22   1.940       .  S
O3           C11   1.251       .  A
O3          Co23   2.053       .  S
O4           C12   1.288       .  A
O4          Co24   2.052       .  S
O5           C11   1.238       .  A
O5          Co22   1.967       .  S
O6           C12   1.277       .  A
O6          Co21   1.961       .  S
O7           C10   1.273       .  A
O7          Co24   2.044       .  S
O8            C9   1.286       .  A
O8          Co23   1.895       .  S
C9          C718   1.464       .  S
C10         C693   1.471       .  S
C11         C697   1.474       .  S
C12         C701   1.468       .  S
O13          C26   1.253       .  A
O13         Co21   2.055       .  S
O14          C27   1.290       .  A
O14         Co22   2.055       .  S
O15          C28   1.303       .  A
O15         Co23   2.063       .  S
O16          C29   1.251       .  A
O16         Co24   1.947       .  S
O17          C29   1.272       .  A
O17         Co22   2.052       .  S
O18          C28   1.284       .  A
O18         Co21   1.896       .  S
O19          C26   1.239       .  A
O19         Co24   1.968       .  S
O20          C27   1.277       .  A
O20         Co23   1.959       .  S
Co21         O25   2.042       .  S
Co22         O25   2.030       .  S
Co23         O25   2.044       .  S
Co24         O25   2.026       .  S
C26         C709   1.473       .  S
C27         C705   1.468       .  S
C28         C713   1.464       .  S
C29         C689   1.480       .  S
O30          C38   1.264       .  A
O30         Co50   2.003   1_545  S
O31          C39   1.272       .  A
O31         Co51   2.076       .  S
O32          C40   1.298       .  A
O32         Co52   2.084       .  S
O33          C41   1.258       .  A
O33         Co53   1.979       .  S
O34          C40   1.275       .  A
O34         Co51   1.917       .  S
O35          C41   1.258       .  A
O35         Co50   1.975       .  S
O36          C39   1.247       .  A
O36         Co53   1.934       .  S
O37          C38   1.265   1_565  A
O37         Co52   1.985       .  S
C38         C706   1.479       .  S
C39         C673   1.467       .  S
C40         C685   1.485       .  S
C41         C670   1.456       .  S
O42          C55   1.258       .  A
O42         Co50   1.976       .  S
O43          C56   1.297       .  A
O43         Co51   2.079       .  S
O44          C57   1.263       .  A
O44         Co52   2.056       .  S
O45          C58   1.263       .  A
O45         Co53   2.007       .  S
O46          C58   1.260       .  A
O46         Co51   1.980       .  S
O47          C57   1.247       .  A
O47         Co50   1.949       .  S
O48          C55   1.257       .  A
O48         Co53   1.964       .  S
O49          C56   1.279       .  A
O49         Co52   1.920       .  S
Co50         O54   2.078       .  S
Co51         O54   2.056       .  S
Co52         O54   2.068       .  S
Co53         O54   2.077       .  S
C55         C665   1.449       .  S
C56         C681   1.481       .  S
C57         C678   1.459       .  S
C58         C702   1.479       .  S
O59          C67   1.262       .  A
O59         Co79   2.004       .  S
O60          C68   1.261       .  A
O60         Co80   2.054       .  S
O61          C69   1.301       .  A
O61         Co81   2.089       .  S
O62          C70   1.259       .  A
O62         Co82   1.975       .  S
O63          C69   1.278       .  A
O63         Co80   1.915       .  S
O64          C70   1.261       .  A
O64         Co79   1.976       .  S
O65          C68   1.245       .  A
O65         Co82   1.951       .  S
O66          C67   1.255       .  A
O66         Co81   1.968       .  S
C67         C654   1.462       .  S
C68         C677   1.460       .  S
C69         C657   1.484       .  S
C70         C642   1.459       .  S
O71          C84   1.258       .  A
O71         Co79   1.979       .  S
O72          C85   1.294       .  A
O72         Co80   2.062       .  S
O73          C86   1.274       .  A
O73         Co81   2.090       .  S
O74          C87   1.267       .  A
O74         Co82   2.011   1_565  S
O75          C87   1.259   1_545  A
O75         Co80   1.963       .  S
O76          C86   1.252       .  A
O76         Co79   1.951       .  S
O77          C84   1.258       .  A
O77         Co82   1.973       .  S
O78          C85   1.274       .  A
O78         Co81   1.904       .  S
Co79         O83   2.084       .  S
Co80         O83   2.069       .  S
Co81         O83   2.047       .  S
Co82         O83   2.068       .  S
C84         C646   1.457       .  S
C85         C662   1.466       .  S
C86         C698   1.480       .  S
C87         C649   1.461       .  S
O88          C96   1.265       .  A
O88        Co108   2.010       .  S
O89          C97   1.269       .  A
O89        Co109   2.074       .  S
O90          C98   1.296       .  A
O90        Co110   2.073       .  S
O91          C99   1.258       .  A
O91        Co111   1.977       .  S
O92          C98   1.275       .  A
O92        Co109   1.913       .  S
O93          C99   1.260       .  A
O93        Co108   1.975       .  S
O94          C97   1.249       .  A
O94        Co111   1.950       .  S
O95          C96   1.257       .  A
O95        Co110   1.964       .  S
C96         C653   1.462       .  S
C97         C674   1.472       .  S
C98         C637   1.469       .  S
C99         C630   1.456       .  S
O100        C113   1.259       .  A
O100       Co108   1.978       .  S
O101        C114   1.295       .  A
O101       Co109   2.066       .  S
O102        C115   1.268       .  A
O102       Co110   2.073       .  S
O103        C116   1.263       .  A
O103       Co111   2.009       .  S
O104        C116   1.255       .  A
O104       Co109   1.964       .  S
O105        C115   1.249       .  A
O105       Co108   1.956       .  S
O106        C113   1.259       .  A
O106       Co111   1.972       .  S
O107        C114   1.277       .  A
O107       Co110   1.911       .  S
Co108       O112   2.076       .  S
Co109       O112   2.054       .  S
Co110       O112   2.059       .  S
Co111       O112   2.077       .  S
C113        C625   1.454       .  S
C114        C634   1.468       .  S
C115        C710   1.475       .  S
C116        C650   1.460       .  S
O117        C125   1.277       .  A
O117       Co137   1.912       .  S
O118        C126   1.259       .  A
O118       Co138   1.966       .  S
O119        C127   1.261       .  A
O119       Co139   1.977       .  S
O120        C128   1.253   1_556  A
O120       Co140   1.945       .  S
O121        C127   1.265   1_556  A
O121       Co138   2.015       .  S
O122        C128   1.267       .  A
O122       Co137   2.069       .  S
O123        C126   1.259       .  A
O123       Co140   1.979       .  S
O124        C125   1.296       .  A
O124       Co139   2.065       .  S
C125        C641   1.472       .  S
C126        C606   1.455       .  S
C127        C613   1.478       .  S
C128        C610   1.475       .  S
O129        C142   1.264       .  A
O129       Co137   1.990       .  S
O130        C143   1.246       .  A
O130       Co138   1.939       .  S
O131        C144   1.275       .  A
O131       Co139   1.916       .  S
O132        C145   1.258       .  A
O132       Co140   1.978       .  S
O133        C145   1.258       .  A
O133       Co138   1.983       .  S
O134        C144   1.300       .  A
O134       Co137   2.087       .  S
O135        C142   1.260   1_556  A
O135       Co140   1.989       .  S
O136        C143   1.265   1_554  A
O136       Co139   2.050       .  S
Co137       O141   2.069   1_554  S
Co138       O141   2.087       .  S
Co139       O141   2.062   1_554  S
Co140       O141   2.084       .  S
C142        C617   1.477       .  S
C143        C621   1.461       .  S
C144        C690   1.484       .  S
C145        C601   1.459       .  S
O146        C154   1.286       .  A
O146       Co166   1.901       .  S
O147        C155   1.275       .  A
O147       Co167   2.059       .  S
O148        C156   1.276   1_554  A
O148       Co168   1.959       .  S
O149        C157   1.239   1_556  A
O149       Co169   1.965       .  S
O150        C156   1.288       .  A
O150       Co167   2.049       .  S
O151        C157   1.249       .  A
O151       Co166   2.045       .  S
O152        C155   1.250       .  A
O152       Co169   1.943       .  S
O153        C154   1.302       .  A
O153       Co168   2.058       .  S
C154        C626   1.461       .  S
C155        C589   1.481       .  S
C156        C618   1.465       .  S
C157        C593   1.470       .  S
O158        C171   1.279   1_554  A
O158       Co166   1.966       .  S
O159        C172   1.239   1_556  A
O159       Co167   1.966       .  S
O160        C173   1.284       .  A
O160       Co168   1.891       .  S
O161        C174   1.271       .  A
O161       Co169   2.044       .  S
O162        C174   1.248       .  A
O162       Co167   1.939       .  S
O163        C173   1.302       .  A
O163       Co166   2.058       .  S
O164        C171   1.289       .  A
O164       Co169   2.051       .  S
O165        C172   1.252       .  A
O165       Co168   2.054       .  S
Co166       O170   2.048   1_554  S
Co167       O170   2.032       .  S
Co168       O170   2.037   1_554  S
Co169       O170   2.029       .  S
C171        C614   1.470       .  S
C172        C598   1.472       .  S
C173        C666   1.461       .  S
C174        C586   1.470       .  S
O175        C183   1.276       .  A
O175       Co195   1.911       .  S
O176        C184   1.261       .  A
O176       Co916   1.977       .  S
O177        C185   1.255       .  A
O177       Co917   1.959       .  S
O178        C186   1.250   1_556  A
O178       Co198   1.951       .  S
O179        C185   1.264   1_556  A
O179       Co916   2.007       .  S
O180        C186   1.270       .  A
O180       Co195   2.077       .  S
O181        C184   1.260       .  A
O181       Co198   1.984   1_545  S
O182        C183   1.294   1_545  A
O182       Co917   2.066       .  S
C183        C669   1.468       .  S
C184        C570   1.460       .  S
C185        C582   1.457       .  S
C186        C597   1.476       .  S
O187        C200   1.259       .  A
O187       Co915   1.968   1_455  S
O188        C201   1.248       .  A
O188       Co196   1.936       .  S
O189        C202   1.274       .  A
O189       Co197   1.915       .  S
O190        C203   1.260       .  A
O190       Co918   1.980   1_455  S
O191        C203   1.260   1_545  A
O191       Co196   1.984       .  S
O192        C202   1.293   1_565  A
O192       Co915   2.065   1_455  S
O193        C200   1.265   1_656  A
O193       Co918   2.007       .  S
O194        C201   1.273   1_554  A
O194       Co197   2.088       .  S
Co195       O907   1.965       .  S
Co195       O912   2.073       .  S
Co195       O199   2.055   1_564  S
Co196       O896   1.971   1_455  S
Co196       O899   2.006       .  S
Co196       O919   2.077   1_455  S
Co197       O897   1.959   1_455  S
Co197       O902   2.078   1_455  S
Co197       O919   2.058   1_454  S
Co198       O910   1.974       .  S
Co198       O913   2.009       .  S
Co198       O199   2.080   1_565  S
O199       Co916   2.075       .  S
O199       Co917   2.063   1_556  S
C200        C578   1.464       .  S
C201        C609   1.473       .  S
C202        C645   1.466       .  S
C203        C573   1.462       .  S
O204        C212   1.274       .  A
O204       Co224   1.916       .  S
O205        C213   1.258       .  A
O205       Co945   1.975   1_455  S
O206        C214   1.258       .  A
O206       Co946   1.967   1_455  S
O207        C215   1.249       .  A
O207       Co227   1.939       .  S
O208        C214   1.263   1_656  A
O208       Co945   1.995       .  S
O209        C215   1.273   1_554  A
O209       Co224   2.086       .  S
O210        C213   1.257       .  A
O210       Co227   1.979       .  S
O211        C212   1.292       .  A
O211       Co946   2.062   1_455  S
C212        C629   1.467       .  S
C213        C565   1.456       .  S
C214        C581   1.459       .  S
C215        C594   1.474       .  S
O216        C229   1.254       .  A
O216       Co944   1.968       .  S
O217        C230   1.247   1_556  A
O217       Co225   1.942       .  S
O218        C231   1.278       .  A
O218       Co226   1.917       .  S
O219        C232   1.260       .  A
O219       Co947   1.973       .  S
O220        C232   1.258       .  A
O220       Co225   1.974       .  S
O221        C231   1.298       .  A
O221       Co944   2.080       .  S
O222        C229   1.261   1_556  A
O222       Co947   2.004       .  S
O223        C230   1.257       .  A
O223       Co226   2.048       .  S
Co224       O936   1.966   1_455  S
Co224       O941   2.077   1_455  S
Co224       O948   2.050   1_454  S
Co225       O925   1.965       .  S
Co225       O928   1.999       .  S
Co225       O228   2.078       .  S
Co226       O926   1.967       .  S
Co226       O931   2.058       .  S
Co226       O228   2.071   1_554  S
Co227       O939   1.971   1_455  S
Co227       O942   2.006       .  S
Co227       O948   2.083   1_455  S
O228       Co944   2.053   1_556  S
O228       Co947   2.082       .  S
C229        C577   1.463       .  S
C230        C622   1.458       .  S
C231        C694   1.477       .  S
C232        C562   1.455       .  S
O233        C241   1.298       .  A
O233       Co253   2.074       .  S
O234        C242   1.260       .  A
O234       Co254   1.980       .  S
O235        C243   1.269       .  A
O235       Co255   2.074       .  S
O236        C244   1.264       .  A
O236       Co256   2.009       .  S
O237        C243   1.250       .  A
O237       Co254   1.952       .  S
O238        C244   1.261       .  A
O238       Co253   1.977       .  S
O239        C242   1.260       .  A
O239       Co256   1.976       .  S
O240        C241   1.276       .  A
O240       Co255   1.908       .  S
C241        C569   1.472       .  S
C242        C541   1.459       .  S
C243        C546   1.479       .  S
C244        C554   1.473       .  S
O245        C258   1.269       .  A
O245       Co253   2.074       .  S
O246        C259   1.264       .  A
O246       Co254   2.009   1_565  S
O247        C260   1.298       .  A
O247       Co255   2.074       .  S
O248        C261   1.258       .  A
O248       Co256   1.975       .  S
O249        C261   1.258       .  A
O249       Co254   1.972       .  S
O250        C260   1.276       .  A
O250       Co253   1.905       .  S
O251        C258   1.250       .  A
O251       Co256   1.954       .  S
O252        C259   1.262       .  A
O252       Co255   1.982   1_565  S
Co253       O257   2.057       .  S
Co254       O257   2.078       .  S
Co255       O257   2.062       .  S
Co256       O257   2.087       .  S
C258        C558   1.480       .  S
C259        C549   1.481       .  S
C260        C602   1.471       .  S
C261        C538   1.452       .  S
O262        C270   1.302       .  A
O262       Co282   2.068       .  S
O263        C271   1.247       .  A
O263       Co283   1.939       .  S
O264        C272   1.247       .  A
O264       Co284   2.038       .  S
O265        C273   1.287       .  A
O265       Co285   2.041       .  S
O266        C272   1.235       .  A
O266       Co283   1.962       .  S
O267        C273   1.278       .  A
O267       Co282   1.967       .  S
O268        C271   1.272       .  A
O268       Co285   2.055       .  S
O269        C270   1.286       .  A
O269       Co284   1.905       .  S
C270        C585   1.474       .  S
C271        C522   1.477       .  S
C272        C533   1.458       .  S
C273        C553   1.467       .  S
O274        C287   1.252       .  A
O274       Co282   2.051       .  S
O275        C288   1.290       .  A
O275       Co283   2.056       .  S
O276        C289   1.301       .  A
O276       Co284   2.054       .  S
O277        C290   1.249       .  A
O277       Co285   1.939       .  S
O278        C290   1.274       .  A
O278       Co283   2.050       .  S
O279        C289   1.286       .  A
O279       Co282   1.902       .  S
O280        C287   1.239       .  A
O280       Co285   1.954       .  S
O281        C288   1.278       .  A
O281       Co284   1.964       .  S
Co282       O286   2.047       .  S
Co283       O286   2.023       .  S
Co284       O286   2.048       .  S
Co285       O286   2.036       .  S
C287        C529   1.474       .  S
C288        C550   1.471       .  S
C289        C561   1.466       .  S
C290        C526   1.474       .  S
O291        C299   1.305       .  A
O291       Co311   2.069       .  S
O292        C300   1.249       .  A
O292       Co312   1.940       .  S
O293        C301   1.252       .  A
O293       Co313   2.057       .  S
O294        C302   1.288       .  A
O294       Co314   2.049       .  S
O295        C301   1.237       .  A
O295       Co312   1.967       .  S
O296        C302   1.277       .  A
O296       Co311   1.964       .  S
O297        C300   1.272       .  A
O297       Co314   2.050       .  S
O298        C299   1.284       .  A
O298       Co313   1.891       .  S
C299        C566   1.469       .  S
C300        C510   1.475       .  S
C301        C530   1.475       .  S
C302        C518   1.469       .  S
O303        C316   1.253       .  A
O303       Co311   2.056       .  S
O304        C317   1.290       .  A
O304       Co312   2.056       .  S
O305        C318   1.305       .  A
O305       Co313   2.067       .  S
O306        C319   1.250       .  A
O306       Co314   1.942       .  S
O307        C319   1.274       .  A
O307       Co312   2.055       .  S
O308        C318   1.285       .  A
O308       Co311   1.890       .  S
O309        C316   1.239       .  A
O309       Co314   1.965       .  S
O310        C317   1.277       .  A
O310       Co313   1.961       .  S
Co311       O315   2.044       .  S
Co312       O315   2.026       .  S
Co313       O315   2.047       .  S
Co314       O315   2.034       .  S
C316        C557   1.475       .  S
C317        C514   1.471       .  S
C318        C605   1.467       .  S
C319        C505   1.480       .  S
O320        C328   1.300       .  A
O320       Co340   2.090       .  S
O321        C329   1.258       .  A
O321       Co341   1.977       .  S
O322        C330   1.263       .  A
O322       Co342   2.052       .  S
O323        C331   1.262       .  A
O323       Co343   2.008   1_545  S
O324        C330   1.246       .  A
O324       Co341   1.950       .  S
O325        C331   1.260       .  A
O325       Co340   1.979   1_545  S
O326        C329   1.258       .  A
O326       Co343   1.972       .  S
O327        C328   1.277       .  A
O327       Co342   1.920       .  S
C328        C590   1.486       .  S
C329        C497   1.455       .  S
C330        C534   1.460       .  S
C331        C517   1.476       .  S
O332        C345   1.274       .  A
O332       Co340   2.088       .  S
O333        C346   1.266       .  A
O333       Co341   2.010       .  S
O334        C347   1.298       .  A
O334       Co342   2.075       .  S
O335        C348   1.260       .  A
O335       Co343   1.986       .  S
O336        C348   1.258       .  A
O336       Co341   1.972       .  S
O337        C347   1.275       .  A
O337       Co340   1.907       .  S
O338        C345   1.249       .  A
O338       Co343   1.938       .  S
O339        C346   1.265       .  A
O339       Co342   1.985       .  S
Co340       O344   2.057       .  S
Co341       O344   2.075       .  S
Co342       O344   2.068       .  S
Co343       O344   2.080       .  S
C345        C545   1.476       .  S
C346        C513   1.483       .  S
C347        C574   1.476       .  S
C348        C501   1.457       .  S
O349        C357   1.273       .  A
O349       Co369   2.051       .  S
O350        C358   1.286       .  A
O350       Co370   1.901       .  S
O351        C359   1.236       .  A
O351       Co371   1.964       .  S
O352        C360   1.277       .  A
O352       Co372   1.965       .  S
O353        C359   1.250       .  A
O353       Co370   2.052       .  S
O354        C360   1.287       .  A
O354       Co369   2.047       .  S
O355        C358   1.300   1_565  A
O355       Co372   2.052       .  S
O356        C357   1.247       .  A
O356       Co371   1.937   1_565  S
C357        C682   1.475       .  S
C358        C537   1.459       .  S
C359        C493   1.468       .  S
C360        C485   1.469       .  S
O361        C374   1.240       .  A
O361       Co369   1.961       .  S
O362        C375   1.277       .  A
O362       Co370   1.962       .  S
O363        C376   1.273       .  A
O363       Co371   2.051       .  S
O364        C377   1.285       .  A
O364       Co372   1.902       .  S
O365        C377   1.302   1_545  A
O365       Co370   2.058       .  S
O366        C376   1.251       .  A
O366       Co369   1.944   1_545  S
O367        C374   1.250       .  A
O367       Co372   2.041       .  S
O368        C375   1.289       .  A
O368       Co371   2.053       .  S
Co369       O373   2.037       .  S
Co370       O373   2.050   1_545  S
Co371       O373   2.026   1_545  S
Co372       O373   2.044       .  S
C374        C482   1.469       .  S
C375        C489   1.469       .  S
C376        C658   1.478       .  S
C377        C498   1.465       .  S
O378        C386   1.259       .  A
O378       Co398   1.977       .  S
O379        C387   1.277       .  A
O379       Co399   1.920       .  S
O380        C388   1.247       .  A
O380       Co400   1.943       .  S
O381        C389   1.263       .  A
O381       Co401   1.982       .  S
O382        C388   1.267       .  A
O382       Co399   2.067       .  S
O383        C389   1.265       .  A
O383       Co398   2.008       .  S
O384        C387   1.299       .  A
O384       Co401   2.086       .  S
O385        C386   1.258       .  A
O385       Co400   1.978       .  S
C386        C633   1.457       .  S
C387        C506   1.486       .  S
C388        C473   1.463       .  S
C389        C486   1.478       .  S
O390        C403   1.249       .  A
O390       Co398   1.949       .  S
O391        C404   1.262       .  A
O391       Co399   1.981       .  S
O392        C405   1.258       .  A
O392       Co400   1.970       .  S
O393        C406   1.278       .  A
O393       Co401   1.921       .  S
O394        C406   1.297       .  A
O394       Co399   2.080       .  S
O395        C405   1.259       .  A
O395       Co398   1.980       .  S
O396        C403   1.268       .  A
O396       Co401   2.067       .  S
O397        C404   1.264       .  A
O397       Co400   2.008       .  S
Co398       O402   2.080       .  S
Co399       O402   2.061       .  S
Co400       O402   2.078       .  S
Co401       O402   2.063       .  S
C403        C477   1.470       .  S
C404        C490   1.478       .  S
C405        C714   1.454       .  S
C406        C521   1.482       .  S
O407        C415   1.258       .  A
O407      Co1147   1.970       .  S
O408        C416   1.276       .  A
O408       Co428   1.907       .  S
O409        C417   1.249       .  A
O409       Co429   1.950       .  S
O410        C418   1.259       .  A
O410       Co430   1.970   1_655  S
O411        C417   1.269       .  A
O411       Co428   2.070       .  S
O412        C418   1.264   1_455  A
O412       Co427   2.001       .  S
O413        C416   1.298       .  A
O413      Co1150   2.074       .  S
O414        C415   1.258       .  A
O414       Co429   1.977       .  S
C415        C717   1.453       .  S
C416        C542   1.472       .  S
C417        C494   1.471       .  S
C418        C465   1.462       .  S
O419        C432   1.249       .  A
O419       Co427   1.952       .  S
O420        C433   1.262       .  A
O420       Co428   1.982       .  S
O421        C434   1.259       .  A
O421      Co1149   1.965   1_455  S
O422        C435   1.277       .  A
O422       Co430   1.917       .  S
O423        C435   1.299       .  A
O423      Co1148   2.088   1_455  S
O424        C434   1.259       .  A
O424       Co427   1.977       .  S
O425        C432   1.260       .  A
O425       Co430   2.053       .  S
O426        C433   1.264       .  A
O426       Co429   2.010       .  S
Co427      O1127   1.981   1_455  S
Co427      O1151   2.073       .  S
Co428      O1143   2.076       .  S
Co428       O431   2.056       .  S
Co429      O1141   1.974       .  S
Co429       O431   2.079       .  S
Co430      O1133   2.062   1_455  S
Co430      O1151   2.068       .  S
O431      Co1147   2.075       .  S
O431      Co1150   2.059       .  S
C432        C474   1.461       .  S
C433        C469   1.477       .  S
C434        C661   1.453       .  S
C435        C509   1.481       .  S
O436        C444   1.271       .  A
O436      Co1176   2.047       .  S
O437        C445   1.285       .  A
O437       Co457   1.918       .  S
O438        C446   1.237       .  A
O438       Co458   1.960       .  S
O439        C447   1.256       .  A
O439       Co459   1.966   1_655  S
O440        C446   1.250       .  A
O440       Co457   2.051       .  S
O441        C447   1.264   1_455  A
O441       Co456   2.009       .  S
O442        C445   1.299       .  A
O442      Co1179   2.064       .  S
O443        C444   1.250       .  A
O443       Co458   1.944       .  S
C444        C686   1.480       .  S
C445        C525   1.479       .  S
C446        C478   1.465       .  S
C447        C470   1.463       .  S
O448        C461   1.248       .  A
O448       Co456   1.941       .  S
O449        C462   1.274       .  A
O449       Co457   1.961       .  S
O450        C463   1.259       .  A
O450      Co1178   1.977   1_455  S
O451        C464   1.275       .  A
O451       Co459   1.914       .  S
O452        C464   1.294       .  A
O452      Co1177   2.064   1_455  S
O453        C463   1.258       .  A
O453       Co456   1.983       .  S
O454        C461   1.270       .  A
O454       Co459   2.075       .  S
O455        C462   1.287       .  A
O455       Co458   2.050       .  S
Co456      O1156   1.967   1_455  S
Co456      O1180   2.084   1_455  S
Co457      O1172   2.062       .  S
Co457       O460   2.060       .  S
Co458      O1170   2.045       .  S
Co458       O460   2.043       .  S
Co459      O1162   2.075   1_455  S
Co459      O1180   2.061   1_455  S
O460      Co1176   2.048       .  S
O460      Co1179   2.063       .  S
C461        C481   1.472       .  S
C462        C466   1.467       .  S
C463        C638   1.459       .  S
C464        C502   1.464       .  S
C465        H467   1.086       .  S
C465       C1186   1.346   1_655  D
C466        H468   1.086       .  S
C466       C1185   1.348       .  D
C469        H471   1.087       .  S
C469       C1190   1.350   1_545  D
C470        H472   1.087       .  S
C470       C1189   1.343   1_665  D
C473        H475   1.088       .  S
C473        C474   1.340       .  D
C474        H476   1.086       .  S
C477        H479   1.087       .  S
C477        C478   1.341       .  D
C478        H480   1.086       .  S
C481        H483   1.088       .  S
C481        C482   1.340       .  D
C482        H484   1.086       .  S
C485        H487   1.086       .  S
C485        C486   1.350       .  D
C486        H488   1.087       .  S
C489        H491   1.086       .  S
C489        C490   1.350       .  D
C490        H492   1.087       .  S
C493        H495   1.087       .  S
C493        C494   1.341       .  D
C494        H496   1.087       .  S
C497        H499   1.087       .  S
C497        C498   1.338       .  D
C498        H500   1.086       .  S
C501        H503   1.087       .  S
C501        C502   1.340       .  D
C502        H504   1.086       .  S
C505        H507   1.089       .  S
C505        C506   1.343       .  D
C506        H508   1.085       .  S
C509        H511   1.085       .  S
C509        C510   1.341       .  D
C510        H512   1.089       .  S
C513        H515   1.087       .  S
C513        C514   1.352       .  D
C514        H516   1.086       .  S
C517        H519   1.087       .  S
C517        C518   1.349       .  D
C518        H520   1.086       .  S
C521        H523   1.085       .  S
C521        C522   1.341       .  D
C522        H524   1.089       .  S
C525        H527   1.085       .  S
C525        C526   1.338       .  D
C526        H528   1.088       .  S
C529        H531   1.086       .  S
C529       C1250   1.344       .  D
C530        H532   1.087   1_455  S
C530       C1249   1.342   1_455  D
C533        H535   1.087       .  S
C533        C534   1.338       .  D
C534        H536   1.087       .  S
C537        H539   1.087       .  S
C537        C538   1.336       .  D
C538        H540   1.087       .  S
C541        H543   1.087       .  S
C541        C542   1.341       .  D
C542        H544   1.086       .  S
C545        H547   1.088   1_455  S
C545       C1266   1.344   1_465  D
C546        H548   1.088       .  S
C546       C1265   1.345   1_545  D
C549        H551   1.087       .  S
C549        C550   1.351       .  D
C550        H552   1.086       .  S
C553        H555   1.086       .  S
C553        C554   1.349       .  D
C554        H556   1.087       .  S
C557        H559   1.086       .  S
C557        C558   1.346       .  D
C558        H560   1.087       .  S
C561        H563   1.087       .  S
C561        C562   1.337       .  D
C562        H564   1.087       .  S
C565        H567   1.087       .  S
C565        C566   1.339       .  D
C566        H568   1.086       .  S
C569        H571   1.086       .  S
C569        C570   1.342       .  D
C570        H572   1.087       .  S
C573        H575   1.087       .  S
C573        C574   1.343       .  D
C574        H576   1.086       .  S
C577       H1299   1.087       .  S
C577       C1298   1.343       .  D
C578       H1300   1.086       .  S
C578       C1297   1.344   1_455  D
H579       C1297   1.086       .  S
H580       C1298   1.087       .  S
C581       H1303   1.086       .  S
C581       C1302   1.343   1_455  D
C582       H1304   1.087       .  S
C582       C1301   1.343       .  D
H583       C1301   1.086       .  S
H584       C1302   1.087       .  S
C585        H587   1.085       .  S
C585        C586   1.338       .  D
C586        H588   1.089       .  S
C589        H591   1.089       .  S
C589        C590   1.343       .  D
C590        H592   1.085       .  S
C593        H595   1.085       .  S
C593        C594   1.340   1_554  D
C594        H596   1.088       .  S
C597        H599   1.088   1_554  S
C597        C598   1.344       .  D
C598        H600   1.086       .  S
C601        H603   1.087       .  S
C601        C602   1.341       .  D
C602        H604   1.086       .  S
C605        H607   1.086       .  S
C605        C606   1.340       .  D
C606        H608   1.087       .  S
C609        H611   1.089       .  S
C609        C610   1.343   1_556  D
C610        H612   1.085       .  S
C613        H615   1.087       .  S
C613        C614   1.350   1_554  D
C614        H616   1.086       .  S
C617        H619   1.087       .  S
C617        C618   1.353   1_544  D
C618        H620   1.086       .  S
C621        H623   1.088       .  S
C621        C622   1.339   1_556  D
C622        H624   1.086       .  S
C625        H627   1.087       .  S
C625        C626   1.338       .  D
C626        H628   1.086       .  S
C629        H631   1.086       .  S
C629        C630   1.339       .  D
C630        H632   1.087       .  S
C633        H635   1.087       .  S
C633        C634   1.338       .  D
C634        H636   1.086       .  S
C637        H639   1.086       .  S
C637        C638   1.341       .  D
C638        H640   1.087       .  S
C641        H643   1.086       .  S
C641        C642   1.339       .  D
C642        H644   1.087       .  S
C645        H647   1.086       .  S
C645        C646   1.339       .  D
C646        H648   1.087       .  S
C649        H651   1.086       .  S
C649        C650   1.342       .  D
C650        H652   1.086       .  S
C653        H655   1.087       .  S
C653        C654   1.343       .  D
C654        H656   1.086       .  S
C657        H659   1.085       .  S
C657        C658   1.343       .  D
C658        H660   1.089       .  S
C661        H663   1.087       .  S
C661        C662   1.338       .  D
C662        H664   1.086       .  S
C665        H667   1.087       .  S
C665        C666   1.337       .  D
C666        H668   1.086       .  S
C669        H671   1.086       .  S
C669        C670   1.338       .  D
C670        H672   1.087       .  S
C673        H675   1.088       .  S
C673       C1394   1.339       .  D
C674        H676   1.087   1_455  S
C674       C1393   1.342   1_455  D
C677        H679   1.087       .  S
C677        C678   1.340   1_545  D
C678        H680   1.086       .  S
C681        H683   1.085       .  S
C681        C682   1.339       .  D
C682        H684   1.089       .  S
C685        H687   1.085       .  S
C685        C686   1.345       .  D
C686        H688   1.089       .  S
C689        H691   1.089       .  S
C689        C690   1.346       .  D
C690        H692   1.085       .  S
C693        H695   1.089       .  S
C693        C694   1.339       .  D
C694        H696   1.085       .  S
C697        H699   1.086       .  S
C697       C1418   1.344       .  D
C698        H700   1.087   1_455  S
C698       C1417   1.344   1_455  D
C701        H703   1.086       .  S
C701        C702   1.350       .  D
C702        H704   1.087       .  S
C705        H707   1.086       .  S
C705        C706   1.351       .  D
C706        H708   1.086       .  S
C709        H711   1.086       .  S
C709        C710   1.343       .  D
C710        H712   1.087       .  S
C713        H715   1.086       .  S
C713        C714   1.338       .  D
C714        H716   1.087       .  S
C717        H719   1.087       .  S
C717        C718   1.337       .  D
C718        H720   1.086       .  S
O721        C729   1.305       .  A
O721       Co741   2.067       .  S
O722        C730   1.249       .  A
O722       Co742   1.940       .  S
O723        C731   1.252       .  A
O723       Co743   2.057       .  S
O724        C732   1.289       .  A
O724       Co744   2.061       .  S
O725        C731   1.237       .  A
O725       Co742   1.968       .  S
O726        C732   1.282       .  A
O726       Co741   1.984       .  S
O727        C730   1.273       .  A
O727       Co744   2.048       .  S
O728        C729   1.286       .  A
O728       Co743   1.905       .  S
C729       C1438   1.468       .  S
C730       C1413   1.474       .  S
C731       C1417   1.477       .  S
C732       C1421   1.491       .  S
O733        C746   1.253       .  A
O733       Co741   2.053       .  S
O734        C747   1.292       .  A
O734       Co742   2.066       .  S
O735        C748   1.305       .  A
O735       Co743   2.069       .  S
O736        C749   1.252       .  A
O736       Co744   1.949       .  S
O737        C749   1.273       .  A
O737       Co742   2.057       .  S
O738        C748   1.285       .  A
O738       Co741   1.903       .  S
O739        C746   1.240       .  A
O739       Co744   1.967       .  S
O740        C747   1.283       .  A
O740       Co743   1.979       .  S
Co741       O745   2.046       .  S
Co742       O745   2.038       .  S
Co743       O745   2.054       .  S
Co744       O745   2.044       .  S
C746       C1429   1.476       .  S
C747       C1425   1.489       .  S
C748       C1433   1.473       .  S
C749       C1409   1.484       .  S
O750        C758   1.290       .  A
O750       Co770   2.062   1_545  S
O751        C759   1.250       .  A
O751       Co771   2.047       .  S
O752        C760   1.309       .  A
O752       Co772   2.074       .  S
O753        C761   1.249       .  A
O753       Co773   1.940       .  S
O754        C760   1.285       .  A
O754       Co771   1.883       .  S
O755        C761   1.274       .  A
O755       Co770   2.050       .  S
O756        C759   1.237       .  A
O756       Co773   1.965       .  S
O757        C758   1.282   1_565  A
O757       Co772   1.982       .  S
C758       C1426   1.490       .  S
C759       C1393   1.468       .  S
C760       C1405   1.472       .  S
C761       C1390   1.475       .  S
O762        C775   1.249       .  A
O762       Co770   1.943       .  S
O763        C776   1.309       .  A
O763       Co771   2.078       .  S
O764        C777   1.252       .  A
O764       Co772   2.049       .  S
O765        C778   1.292       .  A
O765       Co773   2.065       .  S
O766        C778   1.284       .  A
O766       Co771   1.985       .  S
O767        C777   1.238       .  A
O767       Co770   1.965       .  S
O768        C775   1.273       .  A
O768       Co773   2.051       .  S
O769        C776   1.284       .  A
O769       Co772   1.882       .  S
Co770       O774   2.030       .  S
Co771       O774   2.043       .  S
Co772       O774   2.037       .  S
Co773       O774   2.031       .  S
C775       C1385   1.476       .  S
C776       C1401   1.474       .  S
C777       C1398   1.468       .  S
C778       C1422   1.491       .  S
O779        C787   1.263       .  A
O779       Co799   2.008       .  S
O780        C788   1.267       .  A
O780       Co800   2.069       .  S
O781        C789   1.297       .  A
O781       Co801   2.077       .  S
O782        C790   1.259       .  A
O782       Co802   1.976       .  S
O783        C789   1.275       .  A
O783       Co800   1.920       .  S
O784        C790   1.260       .  A
O784       Co799   1.977       .  S
O785        C788   1.248       .  A
O785       Co802   1.952       .  S
O786        C787   1.255       .  A
O786       Co801   1.964       .  S
C787       C1374   1.461       .  S
C788       C1397   1.470       .  S
C789       C1377   1.474       .  S
C790       C1362   1.459       .  S
O791        C804   1.260       .  A
O791       Co799   1.985       .  S
O792        C805   1.294       .  A
O792       Co800   2.064       .  S
O793        C806   1.270       .  A
O793       Co801   2.078       .  S
O794        C807   1.265       .  A
O794       Co802   2.011   1_565  S
O795        C807   1.255   1_545  A
O795       Co800   1.960       .  S
O796        C806   1.251       .  A
O796       Co799   1.953       .  S
O797        C804   1.261       .  A
O797       Co802   1.981       .  S
O798        C805   1.276       .  A
O798       Co801   1.910       .  S
Co799       O803   2.082       .  S
Co800       O803   2.062       .  S
Co801       O803   2.056       .  S
Co802       O803   2.075       .  S
C804       C1366   1.462       .  S
C805       C1382   1.466       .  S
C806       C1418   1.479       .  S
C807       C1369   1.459       .  S
O808        C816   1.261       .  A
O808       Co828   2.003       .  S
O809        C817   1.261       .  A
O809       Co829   2.050       .  S
O810        C818   1.299       .  A
O810       Co830   2.085       .  S
O811        C819   1.261       .  A
O811       Co831   1.980       .  S
O812        C818   1.277       .  A
O812       Co829   1.918       .  S
O813        C819   1.260       .  A
O813       Co828   1.967       .  S
O814        C817   1.252       .  A
O814       Co831   1.951       .  S
O815        C816   1.255       .  A
O815       Co830   1.968       .  S
C816       C1373   1.462       .  S
C817       C1394   1.467       .  S
C818       C1357   1.483       .  S
C819       C1350   1.452       .  S
O820        C833   1.255       .  A
O820       Co828   1.974       .  S
O821        C834   1.293       .  A
O821       Co829   2.057       .  S
O822        C835   1.273       .  A
O822       Co830   2.090       .  S
O823        C836   1.262       .  A
O823       Co831   1.992       .  S
O824        C836   1.259       .  A
O824       Co829   1.972       .  S
O825        C835   1.250       .  A
O825       Co828   1.946       .  S
O826        C833   1.259       .  A
O826       Co831   1.982       .  S
O827        C834   1.274       .  A
O827       Co830   1.902       .  S
Co828       O832   2.084       .  S
Co829       O832   2.066       .  S
Co830       O832   2.051       .  S
Co831       O832   2.078       .  S
C833       C1345   1.458       .  S
C834       C1354   1.460       .  S
C835       C1430   1.480       .  S
C836       C1370   1.462       .  S
O837        C845   1.277       .  A
O837       Co857   1.911       .  S
O838        C846   1.259       .  A
O838       Co858   1.970       .  S
O839        C847   1.260       .  A
O839       Co859   1.974       .  S
O840        C848   1.250   1_556  A
O840       Co860   1.948       .  S
O841        C847   1.266   1_556  A
O841       Co858   2.013       .  S
O842        C848   1.266       .  A
O842       Co857   2.069       .  S
O843        C846   1.261       .  A
O843       Co860   1.983       .  S
O844        C845   1.296       .  A
O844       Co859   2.065       .  S
C845       C1361   1.472       .  S
C846       C1326   1.463       .  S
C847       C1333   1.472       .  S
C848       C1330   1.470       .  S
O849        C862   1.266       .  A
O849       Co857   1.989       .  S
O850        C863   1.246       .  A
O850       Co858   1.940       .  S
O851        C864   1.275       .  A
O851       Co859   1.917       .  S
O852        C865   1.257       .  A
O852       Co860   1.971       .  S
O853        C865   1.258       .  A
O853       Co858   1.983       .  S
O854        C864   1.302       .  A
O854       Co857   2.092       .  S
O855        C862   1.264   1_556  A
O855       Co860   2.003       .  S
O856        C863   1.266   1_554  A
O856       Co859   2.054       .  S
Co857       O861   2.073   1_554  S
Co858       O861   2.091       .  S
Co859       O861   2.063   1_554  S
Co860       O861   2.079       .  S
C862       C1337   1.485       .  S
C863       C1341   1.463       .  S
C864       C1410   1.489       .  S
C865       C1321   1.455       .  S
O866        C874   1.286       .  A
O866       Co886   1.904       .  S
O867        C875   1.273       .  A
O867       Co887   2.046       .  S
O868        C876   1.278   1_554  A
O868       Co888   1.961       .  S
O869        C877   1.241   1_556  A
O869       Co889   1.958       .  S
O870        C876   1.291       .  A
O870       Co887   2.061       .  S
O871        C877   1.255       .  A
O871       Co886   2.059       .  S
O872        C875   1.252       .  A
O872       Co889   1.946       .  S
O873        C874   1.301       .  A
O873       Co888   2.059       .  S
C874       C1346   1.470       .  S
C875       C1309   1.476       .  S
C876       C1338   1.472       .  S
C877       C1313   1.481       .  S
O878        C891   1.277   1_554  A
O878       Co886   1.964       .  S
O879        C892   1.234   1_556  A
O879       Co887   1.959       .  S
O880        C893   1.284       .  A
O880       Co888   1.910       .  S
O881        C894   1.271       .  A
O881       Co889   2.052       .  S
O882        C894   1.249       .  A
O882       Co887   1.945       .  S
O883        C893   1.303       .  A
O883       Co886   2.077       .  S
O884        C891   1.287       .  A
O884       Co889   2.044       .  S
O885        C892   1.248       .  A
O885       Co888   2.039       .  S
Co886       O890   2.049   1_554  S
Co887       O890   2.022       .  S
Co888       O890   2.053   1_554  S
Co889       O890   2.041       .  S
C891       C1334   1.467       .  S
C892       C1318   1.462       .  S
C893       C1386   1.480       .  S
C894       C1306   1.477       .  S
O895        C903   1.278       .  A
O895       Co915   1.924       .  S
O896        C904   1.259       .  A
O897        C905   1.253       .  A
O898        C906   1.247   1_556  A
O898       Co918   1.951       .  S
O899        C905   1.262   1_456  A
O900        C906   1.262       .  A
O900       Co915   2.056       .  S
O901        C904   1.259   1_565  A
O901       Co918   1.977       .  S
O902        C903   1.296   1_545  A
C903       C1389   1.480       .  S
C904       C1290   1.456       .  S
C905       C1302   1.456       .  S
C906       C1317   1.459       .  S
O907        C920   1.255       .  A
O908        C921   1.247   1_556  A
O908       Co916   1.945       .  S
O909        C922   1.275       .  A
O909       Co917   1.918       .  S
O910        C923   1.259       .  A
O911        C923   1.258   1_545  A
O911       Co916   1.974       .  S
O912        C922   1.296   1_565  A
O913        C920   1.263   1_556  A
O914        C921   1.268       .  A
O914       Co917   2.075       .  S
Co915       O919   2.067   1_564  S
Co918       O919   2.075   1_565  S
C920       C1298   1.462       .  S
C921       C1329   1.470       .  S
C922       C1365   1.471       .  S
C923       C1293   1.454       .  S
O924        C932   1.274       .  A
O924       Co944   1.909       .  S
O925        C933   1.256       .  A
O926        C934   1.259       .  A
O927        C935   1.252       .  A
O927       Co947   1.943       .  S
O928        C934   1.265   1_556  A
O929        C935   1.275   1_554  A
O929       Co944   2.094       .  S
O930        C933   1.259       .  A
O930       Co947   1.982       .  S
O931        C932   1.293       .  A
C932       C1349   1.464       .  S
C933       C1285   1.454       .  S
C934       C1301   1.459       .  S
C935       C1314   1.482       .  S
O936        C949   1.253       .  A
O937        C950   1.249   1_556  A
O937       Co945   1.943       .  S
O938        C951   1.278       .  A
O938       Co946   1.922       .  S
O939        C952   1.261       .  A
O940        C952   1.261       .  A
O940       Co945   1.980       .  S
O941        C951   1.296       .  A
O942        C949   1.261   1_456  A
O943        C950   1.260       .  A
O943       Co946   2.048       .  S
Co945       O948   2.075       .  S
Co946       O948   2.071   1_554  S
C949       C1297   1.461       .  S
C950       C1342   1.461       .  S
C951       C1414   1.479       .  S
C952       C1282   1.455       .  S
O953        C961   1.295       .  A
O953       Co973   2.065       .  S
O954        C962   1.260       .  A
O954       Co974   1.980       .  S
O955        C963   1.269       .  A
O955       Co975   2.072       .  S
O956        C964   1.265       .  A
O956       Co976   2.011       .  S
O957        C963   1.255       .  A
O957       Co974   1.950       .  S
O958        C964   1.256       .  A
O958       Co973   1.962       .  S
O959        C962   1.259       .  A
O959       Co976   1.962       .  S
O960        C961   1.276       .  A
O960       Co975   1.913       .  S
C961       C1289   1.468       .  S
C962       C1261   1.453       .  S
C963       C1266   1.478       .  S
C964       C1274   1.461       .  S
O965        C978   1.267       .  A
O965       Co973   2.075       .  S
O966        C979   1.258       .  A
O966       Co974   1.986   1_565  S
O967        C980   1.295       .  A
O967       Co975   2.067       .  S
O968        C981   1.257       .  A
O968       Co976   1.977       .  S
O969        C981   1.259       .  A
O969       Co974   1.981       .  S
O970        C980   1.275       .  A
O970       Co973   1.909       .  S
O971        C978   1.245       .  A
O971       Co976   1.939       .  S
O972        C979   1.257   1_545  A
O972       Co975   1.976       .  S
Co973       O977   2.061       .  S
Co974       O977   2.082       .  S
Co975       O977   2.058       .  S
Co976       O977   2.080       .  S
C978       C1278   1.471       .  S
C979       C1269   1.463       .  S
C980       C1322   1.462       .  S
C981       C1258   1.458       .  S
O982        C990   1.299       .  A
O982      Co1002   2.087       .  S
O983        C991   1.259       .  A
O983      Co1003   1.981       .  S
O984        C992   1.263       .  A
O984      Co1004   2.053       .  S
O985        C993   1.265       .  A
O985      Co1005   2.009       .  S
O986        C992   1.247       .  A
O986      Co1003   1.955       .  S
O987        C993   1.258       .  A
O987      Co1002   1.967       .  S
O988        C991   1.259       .  A
O988      Co1005   1.974       .  S
O989        C990   1.275       .  A
O989      Co1004   1.920       .  S
C990       C1305   1.481       .  S
C991       C1242   1.457       .  S
C992       C1253   1.463       .  S
C993       C1273   1.464       .  S
O994       C1007   1.270       .  A
O994      Co1002   2.083       .  S
O995       C1008   1.267       .  A
O995      Co1003   2.017       .  S
O996       C1009   1.292       .  A
O996      Co1004   2.057       .  S
O997       C1010   1.259       .  A
O997      Co1005   1.978       .  S
O998       C1010   1.261       .  A
O998      Co1003   1.979       .  S
O999       C1009   1.277       .  A
O999      Co1002   1.917       .  S
O1000      C1007   1.249       .  A
O1000     Co1005   1.951       .  S
O1001      C1008   1.255       .  A
O1001     Co1004   1.955       .  S
Co1002     O1006   2.064       .  S
Co1003     O1006   2.083       .  S
Co1004     O1006   2.059       .  S
Co1005     O1006   2.075       .  S
C1007      C1249   1.476       .  S
C1008      C1270   1.457       .  S
C1009      C1281   1.465       .  S
C1010      C1246   1.463       .  S
O1011      C1019   1.299       .  A
O1011     Co1031   2.075       .  S
O1012      C1020   1.258       .  A
O1012     Co1032   1.981       .  S
O1013      C1021   1.270       .  A
O1013     Co1033   2.074       .  S
O1014      C1022   1.263       .  A
O1014     Co1034   1.998       .  S
O1015      C1021   1.250       .  A
O1015     Co1032   1.945       .  S
O1016      C1022   1.265       .  A
O1016     Co1031   1.987       .  S
O1017      C1020   1.258       .  A
O1017     Co1034   1.975       .  S
O1018      C1019   1.273       .  A
O1018     Co1033   1.893       .  S
C1019      C1286   1.468       .  S
C1020      C1230   1.459       .  S
C1021      C1250   1.476       .  S
C1022      C1238   1.477       .  S
O1023      C1036   1.264       .  A
O1023     Co1031   2.058       .  S
O1024      C1037   1.264       .  A
O1024     Co1032   2.010       .  S
O1025      C1038   1.301       .  A
O1025     Co1033   2.079       .  S
O1026      C1039   1.260       .  A
O1026     Co1034   1.977       .  S
O1027      C1039   1.258       .  A
O1027     Co1032   1.966       .  S
O1028      C1038   1.276       .  A
O1028     Co1031   1.904       .  S
O1029      C1036   1.251       .  A
O1029     Co1034   1.947       .  S
O1030      C1037   1.261       .  A
O1030     Co1033   1.980       .  S
Co1031     O1035   2.068       .  S
Co1032     O1035   2.089       .  S
Co1033     O1035   2.055       .  S
Co1034     O1035   2.084       .  S
C1036      C1277   1.471       .  S
C1037      C1234   1.480       .  S
C1038      C1325   1.476       .  S
C1039      C1225   1.454       .  S
O1040      C1048   1.305       .  A
O1040     Co1060   2.077       .  S
O1041      C1049   1.250       .  A
O1041     Co1061   1.945       .  S
O1042      C1050   1.247       .  A
O1042     Co1062   2.036       .  S
O1043      C1051   1.288       .  A
O1043     Co1063   2.049   1_545  S
O1044      C1050   1.237       .  A
O1044     Co1061   1.964       .  S
O1045      C1051   1.278   1_565  A
O1045     Co1060   1.965       .  S
O1046      C1049   1.274       .  A
O1046     Co1063   2.058       .  S
O1047      C1048   1.285       .  A
O1047     Co1062   1.905       .  S
C1048      C1310   1.480       .  S
C1049      C1217   1.479       .  S
C1050      C1254   1.459       .  S
C1051      C1237   1.468       .  S
O1052      C1065   1.253       .  A
O1052     Co1060   2.059       .  S
O1053      C1066   1.290       .  A
O1053     Co1061   2.054       .  S
O1054      C1067   1.302       .  A
O1054     Co1062   2.059       .  S
O1055      C1068   1.248       .  A
O1055     Co1063   1.940       .  S
O1056      C1068   1.273       .  A
O1056     Co1061   2.049       .  S
O1057      C1067   1.285       .  A
O1057     Co1060   1.895       .  S
O1058      C1065   1.238       .  A
O1058     Co1063   1.962       .  S
O1059      C1066   1.279       .  A
O1059     Co1062   1.965       .  S
Co1060     O1064   2.042       .  S
Co1061     O1064   2.025       .  S
Co1062     O1064   2.048       .  S
Co1063     O1064   2.031       .  S
C1065      C1265   1.474       .  S
C1066      C1233   1.470       .  S
C1067      C1294   1.467       .  S
C1068      C1221   1.474       .  S
O1069      C1077   1.260       .  A
O1069     Co1089   1.969       .  S
O1070      C1078   1.276       .  A
O1070     Co1090   1.922       .  S
O1071      C1079   1.254       .  A
O1071     Co1091   1.951       .  S
O1072      C1080   1.256       .  A
O1072     Co1092   1.962       .  S
O1073      C1079   1.269       .  A
O1073     Co1090   2.077       .  S
O1074      C1080   1.265       .  A
O1074     Co1089   2.014       .  S
O1075      C1078   1.293   1_565  A
O1075     Co1092   2.062       .  S
O1076      C1077   1.262   1_545  A
O1076     Co1091   1.985       .  S
C1077      C1402   1.460       .  S
C1078      C1257   1.469       .  S
C1079      C1213   1.483       .  S
C1080      C1205   1.462       .  S
O1081      C1094   1.247       .  A
O1081     Co1089   1.945       .  S
O1082      C1095   1.257       .  A
O1082     Co1090   1.969       .  S
O1083      C1096   1.260       .  A
O1083     Co1091   1.985       .  S
O1084      C1097   1.276       .  A
O1084     Co1092   1.927       .  S
O1085      C1097   1.296   1_545  A
O1085     Co1090   2.081       .  S
O1086      C1096   1.258       .  A
O1086     Co1089   1.984   1_545  S
O1087      C1094   1.266       .  A
O1087     Co1092   2.060       .  S
O1088      C1095   1.261       .  A
O1088     Co1091   1.994       .  S
Co1089     O1093   2.089   1_565  S
Co1090     O1093   2.071       .  S
Co1091     O1093   2.085       .  S
Co1092     O1093   2.066   1_565  S
C1094      C1202   1.469       .  S
C1095      C1209   1.461       .  S
C1096      C1378   1.465       .  S
C1097      C1218   1.482       .  S
O1098      C1106   1.257       .  A
O1098     Co1118   1.959       .  S
O1099      C1107   1.274       .  A
O1099     Co1119   1.907       .  S
O1100      C1108   1.253       .  A
O1100     Co1120   1.947       .  S
O1101      C1109   1.257       .  A
O1101     Co1121   1.965       .  S
O1102      C1108   1.266       .  A
O1102     Co1119   2.067       .  S
O1103      C1109   1.265       .  A
O1103     Co1118   2.011       .  S
O1104      C1107   1.296       .  A
O1104     Co1121   2.068       .  S
O1105      C1106   1.260       .  A
O1105     Co1120   1.978       .  S
C1106      C1353   1.448       .  S
C1107      C1226   1.468       .  S
C1108      C1193   1.471       .  S
C1109      C1206   1.463       .  S
O1110      C1123   1.245       .  A
O1110     Co1118   1.936       .  S
O1111      C1124   1.256       .  A
O1111     Co1119   1.968       .  S
O1112      C1125   1.260       .  A
O1112     Co1120   1.983       .  S
O1113      C1126   1.276       .  A
O1113     Co1121   1.911       .  S
O1114      C1126   1.295       .  A
O1114     Co1119   2.066       .  S
O1115      C1125   1.258       .  A
O1115     Co1118   1.983       .  S
O1116      C1123   1.267       .  A
O1116     Co1121   2.069       .  S
O1117      C1124   1.260       .  A
O1117     Co1120   1.996       .  S
Co1118     O1122   2.077       .  S
Co1119     O1122   2.055       .  S
Co1120     O1122   2.082       .  S
Co1121     O1122   2.064       .  S
C1123      C1197   1.465       .  S
C1124      C1210   1.460       .  S
C1125      C1434   1.463       .  S
C1126      C1241   1.465       .  S
O1127      C1135   1.260       .  A
O1128      C1136   1.274       .  A
O1128     Co1148   1.903       .  S
O1129      C1137   1.249       .  A
O1129     Co1149   1.937       .  S
O1130      C1138   1.260       .  A
O1130     Co1150   1.977       .  S
O1131      C1137   1.275       .  A
O1131     Co1148   2.098       .  S
O1132      C1138   1.263       .  A
O1132     Co1147   2.008       .  S
O1133      C1136   1.294       .  A
O1134      C1135   1.259       .  A
O1134     Co1149   1.988       .  S
C1135      C1437   1.464       .  S
C1136      C1262   1.465       .  S
C1137      C1214   1.481       .  S
C1138      C1185   1.473       .  S
O1139      C1152   1.247       .  A
O1139     Co1147   1.941       .  S
O1140      C1153   1.254       .  A
O1140     Co1148   1.965   1_455  S
O1141      C1154   1.259       .  A
O1142      C1155   1.275       .  A
O1142     Co1150   1.902       .  S
O1143      C1155   1.299       .  A
O1144      C1154   1.259       .  A
O1144     Co1147   1.978       .  S
O1145      C1152   1.269       .  A
O1145     Co1150   2.075       .  S
O1146      C1153   1.262   1_655  A
O1146     Co1149   2.009       .  S
Co1148     O1151   2.052   1_655  S
Co1149     O1151   2.082   1_655  S
C1152      C1194   1.471       .  S
C1153      C1189   1.462       .  S
C1154      C1381   1.454       .  S
C1155      C1229   1.471       .  S
O1156      C1164   1.259       .  A
O1157      C1165   1.275       .  A
O1157     Co1177   1.916       .  S
O1158      C1166   1.251       .  A
O1158     Co1178   1.940       .  S
O1159      C1167   1.277       .  A
O1159     Co1179   1.965       .  S
O1160      C1166   1.264       .  A
O1160     Co1177   2.062       .  S
O1161      C1167   1.288       .  A
O1161     Co1176   2.051       .  S
O1162      C1165   1.297       .  A
O1163      C1164   1.261       .  A
O1163     Co1178   1.985       .  S
C1164      C1406   1.458       .  S
C1165      C1245   1.476       .  S
C1166      C1198   1.468       .  S
C1167      C1190   1.471       .  S
O1168      C1181   1.237       .  A
O1168     Co1176   1.955       .  S
O1169      C1182   1.257       .  A
O1169     Co1177   1.968   1_455  S
O1170      C1183   1.272       .  A
O1171      C1184   1.286       .  A
O1171     Co1179   1.920       .  S
O1172      C1184   1.299       .  A
O1173      C1183   1.251       .  A
O1173     Co1176   1.943       .  S
O1174      C1181   1.249       .  A
O1174     Co1179   2.042       .  S
O1175      C1182   1.263   1_655  A
O1175     Co1178   2.003       .  S
Co1177     O1180   2.065       .  S
Co1178     O1180   2.078       .  S
C1181      C1201   1.464       .  S
C1182      C1186   1.462       .  S
C1183      C1358   1.478       .  S
C1184      C1222   1.478       .  S
C1185      H1187   1.087       .  S
C1186      H1188   1.087       .  S
C1189      H1191   1.087       .  S
C1190      H1192   1.086       .  S
C1193      H1195   1.086       .  S
C1193      C1194   1.343       .  D
C1194      H1196   1.088       .  S
C1197      H1199   1.089       .  S
C1197      C1198   1.341       .  D
C1198      H1200   1.086       .  S
C1201      H1203   1.086       .  S
C1201      C1202   1.340       .  D
C1202      H1204   1.088       .  S
C1205      H1207   1.087       .  S
C1205      C1206   1.342       .  D
C1206      H1208   1.087       .  S
C1209      H1211   1.087       .  S
C1209      C1210   1.346       .  D
C1210      H1212   1.086       .  S
C1213      H1215   1.085       .  S
C1213      C1214   1.345       .  D
C1214      H1216   1.089       .  S
C1217      H1219   1.089       .  S
C1217      C1218   1.343       .  D
C1218      H1220   1.085       .  S
C1221      H1223   1.088       .  S
C1221      C1222   1.338       .  D
C1222      H1224   1.086       .  S
C1225      H1227   1.087       .  S
C1225      C1226   1.339       .  D
C1226      H1228   1.086       .  S
C1229      H1231   1.086       .  S
C1229      C1230   1.342       .  D
C1230      H1232   1.087       .  S
C1233      H1235   1.085       .  S
C1233      C1234   1.350       .  D
C1234      H1236   1.087       .  S
C1237      H1239   1.086       .  S
C1237      C1238   1.352       .  D
C1238      H1240   1.087       .  S
C1241      H1243   1.086       .  S
C1241      C1242   1.340       .  D
C1242      H1244   1.088       .  S
C1245      H1247   1.086       .  S
C1245      C1246   1.342       .  D
C1246      H1248   1.087       .  S
C1249      H1251   1.087   1_655  S
C1250      H1252   1.088       .  S
C1253      H1255   1.087       .  S
C1253      C1254   1.340       .  D
C1254      H1256   1.086       .  S
C1257      H1259   1.086   1_545  S
C1257      C1258   1.337       .  D
C1258      H1260   1.087       .  S
C1261      H1263   1.087       .  S
C1261      C1262   1.339       .  D
C1262      H1264   1.086       .  S
C1265      H1267   1.086       .  S
C1266      H1268   1.085   1_655  S
C1269      H1271   1.086       .  S
C1269      C1270   1.344       .  D
C1270      H1272   1.087       .  S
C1273      H1275   1.087       .  S
C1273      C1274   1.343       .  D
C1274      H1276   1.086       .  S
C1277      H1279   1.085       .  S
C1277      C1278   1.342       .  D
C1278      H1280   1.088       .  S
C1281      H1283   1.087       .  S
C1281      C1282   1.338       .  D
C1282      H1284   1.087       .  S
C1285      H1287   1.087       .  S
C1285      C1286   1.343       .  D
C1286      H1288   1.086       .  S
C1289      H1291   1.086       .  S
C1289      C1290   1.339       .  D
C1290      H1292   1.087       .  S
C1293      H1295   1.087       .  S
C1293      C1294   1.336       .  D
C1294      H1296   1.086       .  S
C1305      H1307   1.085       .  S
C1305      C1306   1.343       .  D
C1306      H1308   1.089       .  S
C1309      H1311   1.089       .  S
C1309      C1310   1.342       .  D
C1310      H1312   1.085       .  S
C1313      H1315   1.085       .  S
C1313      C1314   1.345   1_554  D
C1314      H1316   1.088       .  S
C1317      H1319   1.086       .  S
C1317      C1318   1.338       .  D
C1318      H1320   1.087       .  S
C1321      H1323   1.087       .  S
C1321      C1322   1.339       .  D
C1322      H1324   1.086       .  S
C1325      H1327   1.086       .  S
C1325      C1326   1.344       .  D
C1326      H1328   1.087       .  S
C1329      H1331   1.088   1_554  S
C1329      C1330   1.343       .  D
C1330      H1332   1.086       .  S
C1333      H1335   1.087       .  S
C1333      C1334   1.347   1_554  D
C1334      H1336   1.086       .  S
C1337      H1339   1.087       .  S
C1337      C1338   1.354   1_544  D
C1338      H1340   1.086       .  S
C1341      H1343   1.088       .  S
C1341      C1342   1.340   1_556  D
C1342      H1344   1.086       .  S
C1345      H1347   1.086       .  S
C1345      C1346   1.337       .  D
C1346      H1348   1.086       .  S
C1349      H1351   1.086       .  S
C1349      C1350   1.339       .  D
C1350      H1352   1.087       .  S
C1353      H1355   1.087       .  S
C1353      C1354   1.338       .  D
C1354      H1356   1.087       .  S
C1357      H1359   1.085       .  S
C1357      C1358   1.343       .  D
C1358      H1360   1.089       .  S
C1361      H1363   1.086       .  S
C1361      C1362   1.338       .  D
C1362      H1364   1.087       .  S
C1365      H1367   1.086       .  S
C1365      C1366   1.342       .  D
C1366      H1368   1.087       .  S
C1369      H1371   1.087       .  S
C1369      C1370   1.344       .  D
C1370      H1372   1.086       .  S
C1373      H1375   1.087       .  S
C1373      C1374   1.343       .  D
C1374      H1376   1.087       .  S
C1377      H1379   1.086       .  S
C1377      C1378   1.343       .  D
C1378      H1380   1.087       .  S
C1381      H1383   1.087       .  S
C1381      C1382   1.338       .  D
C1382      H1384   1.086       .  S
C1385      H1387   1.089       .  S
C1385      C1386   1.341       .  D
C1386      H1388   1.085       .  S
C1389      H1391   1.085       .  S
C1389      C1390   1.339       .  D
C1390      H1392   1.089       .  S
C1393      H1395   1.086   1_655  S
C1394      H1396   1.086       .  S
C1397      H1399   1.087       .  S
C1397      C1398   1.341   1_545  D
C1398      H1400   1.087       .  S
C1401      H1403   1.086       .  S
C1401      C1402   1.344       .  D
C1402      H1404   1.087       .  S
C1405      H1407   1.086       .  S
C1405      C1406   1.342       .  D
C1406      H1408   1.087       .  S
C1409      H1411   1.089       .  S
C1409      C1410   1.348       .  D
C1410      H1412   1.085       .  S
C1413      H1415   1.089       .  S
C1413      C1414   1.339       .  D
C1414      H1416   1.085       .  S
C1417      H1419   1.086   1_655  S
C1418      H1420   1.087       .  S
C1421      H1423   1.086       .  S
C1421      C1422   1.357       .  D
C1422      H1424   1.086       .  S
C1425      H1427   1.086       .  S
C1425      C1426   1.356       .  D
C1426      H1428   1.086       .  S
C1429      H1431   1.086       .  S
C1429      C1430   1.344       .  D
C1430      H1432   1.088       .  S
C1433      H1435   1.086       .  S
C1433      C1434   1.341       .  D
C1434      H1436   1.087       .  S
C1437      H1439   1.087       .  S
C1437      C1438   1.341       .  D
C1438      H1440   1.086       .  S
