geometry optimzed in LAMMPS
_audit_creation_date              2020-11-30 
_audit_creation_method            'lammps2cif' 
_symmetry_space_group_name_H-M    'P1' 
_symmetry_Int_Tables_number       1 
_symmetry_cell_setting            triclinic 
loop_ 
_symmetry_equiv_pos_as_xyz 
  x,y,z 
_cell_length_a                    51.96705324 
_cell_length_b                    51.918836421991884 
_cell_length_c                    51.90531820574883 
_cell_angle_alpha                 89.89209818594703 
_cell_angle_beta                  89.87891432044361 
_cell_angle_gamma                 90.24896140250887 
loop_ 
_atom_site_label 
_atom_site_type_symbol 
_atom_site_fract_x 
_atom_site_fract_y 
_atom_site_fract_z 
_atom_site_charge 
O1          O  0.47915995  0.02237555  0.77818617    -0.86000
O2          O  0.45460322  0.03347773  0.73291591    -0.83000
C3          C  0.44960633  0.03340817  0.70921286     0.97500
O4          O  0.45905257  0.01625822  0.69493949    -0.83100
O5          O  0.51015629  0.03044135  0.69626566    -0.85700
C6          C  0.53348122  0.03193160  0.70271016     1.02000
O7          O  0.54252410  0.01741042  0.72024102    -0.78500
O8          O  0.51819119  0.03011602  0.76425984    -0.78700
C9          C  0.49841362  0.03724632  0.77619085     1.01900
O10         O  0.47135581  0.96791617  0.76742650    -0.86000
O11         O  0.44392368  0.97881417  0.72515610    -0.83100
C12         C  0.45239885  0.96191427  0.70968611     0.97500
O13         O  0.47455953  0.96394820  0.70006102    -0.83100
O14         O  0.52481577  0.97846658  0.69336355    -0.85700
C15         C  0.53657304  0.96286886  0.70766011     1.02000
O16         O  0.53307654  0.96325743  0.73163315    -0.78500
O17         O  0.51126203  0.97579937  0.77803048    -0.78700
C18         C  0.49190605  0.96086725  0.77801530     1.01900
Cr19       Cr  0.46441737  0.00060487  0.74998075     1.93700
Cr20       Cr  0.49215958  0.99732554  0.69863703     1.93200
Cr21       Cr  0.52397116  0.99672119  0.74781062     1.39100
O22         O  0.49357482  0.99826871  0.73235496    -1.23700
O23         O  0.52195731  0.79301458  0.82883791    -0.86000
O24         O  0.54925187  0.77025781  0.78959814    -0.83000
C25         C  0.54146653  0.74715709  0.78740778     0.97500
O26         O  0.51895433  0.74232243  0.77979837    -0.83100
O27         O  0.46791396  0.74934939  0.76852797    -0.85700
C28         C  0.45719760  0.74845905  0.79030088     1.02000
O29         O  0.45965090  0.76681468  0.80598408    -0.78500
O30         O  0.48284004  0.80852782  0.82978613    -0.78700
C31         C  0.50254993  0.80035830  0.84144548     1.01900
O32         O  0.51624361  0.83939328  0.79927295    -0.86000
O33         O  0.54081891  0.81523160  0.75800645    -0.83100
C34         C  0.54379156  0.79933735  0.73985626     0.97500
O35         O  0.53290544  0.77763761  0.74082831    -0.83100
O36         O  0.48165015  0.78896458  0.73339979    -0.85700
C37         C  0.45867496  0.79544778  0.73770496     1.02000
O38         O  0.45058248  0.79739569  0.76066293    -0.78500
O39         O  0.47747220  0.83727751  0.78301322    -0.78700
C40         C  0.49607106  0.85047611  0.79127014     1.01900
Cr41       Cr  0.52966964  0.80353026  0.79302475     1.93700
Cr42       Cr  0.50030598  0.76659333  0.75759396     1.93200
Cr43       Cr  0.47010753  0.80167685  0.79392290     1.39100
O44         O  0.50005814  0.79063551  0.78165389    -1.23700
O45         O  0.51770282  0.78359067  0.01361378    -0.86000
O46         O  0.54111649  0.73804139  0.02596125    -0.83000
C47         C  0.54543702  0.71419859  0.02609053     0.97500
O48         O  0.53519763  0.69985626  0.00941867    -0.83100
O49         O  0.48314079  0.70304847  0.02116258    -0.85700
C50         C  0.46026617  0.71128727  0.02169458     1.02000
O51         O  0.45264670  0.72758567  0.00513899    -0.78500
O52         O  0.47817756  0.77033327  0.01952522    -0.78700
C53         C  0.49783190  0.78181167  0.02774442     1.01900
O54         O  0.52782260  0.77196501  0.95911021    -0.86000
O55         O  0.55360757  0.72932739  0.97227877    -0.83100
C56         C  0.54575704  0.71318220  0.95572805     0.97500
O57         O  0.52311160  0.70437020  0.95657785    -0.83100
O58         O  0.47180893  0.69999422  0.96790402    -0.85700
C59         C  0.46153661  0.71445011  0.95135054     1.02000
O60         O  0.46587292  0.73830195  0.95173995    -0.78500
O61         O  0.48824837  0.78408765  0.96582318    -0.78700
C62         C  0.50791527  0.78321322  0.95140841     1.01900
Cr63       Cr  0.53280072  0.75489702  0.99257394     1.93700
Cr64       Cr  0.50334123  0.70422028  0.98883072     1.93200
Cr65       Cr  0.47351963  0.75426649  0.98571079     1.39100
O66         O  0.50324624  0.73794408  0.98909536    -1.23700
O67         O  0.48180549  0.18675300  0.83208729    -0.86000
O68         O  0.45820980  0.22847719  0.80844891    -0.83000
C69         C  0.45438818  0.24672137  0.79279439     0.97500
O70         O  0.46637634  0.24720604  0.77162323    -0.83100
O71         O  0.51727289  0.25606151  0.78448707    -0.85700
C72         C  0.53967331  0.25162241  0.79263540     1.02000
O73         O  0.54781375  0.22875915  0.79469668    -0.78500
O74         O  0.51997415  0.20473010  0.83313766    -0.78700
C75         C  0.50031216  0.19622944  0.84476314     1.01900
O76         O  0.47873248  0.15911594  0.78452886    -0.86000
O77         O  0.45115396  0.19877776  0.76262567    -0.83100
C78         C  0.45984448  0.20128237  0.73998129     0.97500
O79         O  0.48275227  0.20862585  0.73651235    -0.83100
O80         O  0.53322827  0.22182824  0.74539032    -0.85700
C81         C  0.54495105  0.20062302  0.74464177     1.02000
O82         O  0.54164092  0.18433712  0.76249157    -0.78500
O83         O  0.51679878  0.15885124  0.80265136    -0.78700
C84         C  0.49803588  0.14692758  0.79268119     1.01900
Cr85       Cr  0.46988909  0.19422477  0.79612360     1.93700
Cr86       Cr  0.49985447  0.23143016  0.76144255     1.93200
Cr87       Cr  0.52921296  0.19503916  0.79732872     1.39100
O88         O  0.49969376  0.20690198  0.78510239    -1.23700
O89         O  0.51395810  0.21251600  0.97029870    -0.86000
O90         O  0.53900949  0.25713939  0.95840432    -0.83000
C91         C  0.54280336  0.28098035  0.95680927     0.97500
O92         O  0.53235675  0.29631579  0.97240034    -0.83100
O93         O  0.48080099  0.29353551  0.95983950    -0.85700
C94         C  0.45768449  0.28603181  0.95904900     1.02000
O95         O  0.44938082  0.26942080  0.97492548    -0.78500
O96         O  0.47550723  0.22658887  0.96063041    -0.78700
C97         C  0.49549802  0.21442516  0.95444460     1.01900
O98         O  0.52085732  0.22533515  0.02473724    -0.86000
O99         O  0.54921497  0.26759773  0.01206342    -0.83100
C100        C  0.54120910  0.28496022  0.02728023     0.97500
O101        O  0.51859642  0.29337883  0.02535724    -0.83100
O102        O  0.46784257  0.29680103  0.01282366    -0.85700
C103        C  0.45845109  0.28221169  0.02987757     1.02000
O104        O  0.46021224  0.25813390  0.02802577    -0.78500
O105        O  0.48221570  0.21230421  0.01445864    -0.78700
C106        C  0.50045840  0.21354583  0.03049471     1.01900
Cr107      Cr  0.52857683  0.24152696  0.99149158     1.93700
Cr108      Cr  0.49986752  0.29255399  0.99254935     1.93200
Cr109      Cr  0.46904764  0.24246814  0.99438258     1.39100
O110        O  0.49920765  0.25878052  0.99276500    -1.23700
O111        O  0.51519359  0.19056597  0.15236567    -0.86000
O112        O  0.53813669  0.23275372  0.17642365    -0.83000
C113        C  0.54127579  0.25080741  0.19247134     0.97500
O114        O  0.52965980  0.25010704  0.21382884    -0.83100
O115        O  0.47852161  0.25698455  0.20207253    -0.85700
C116        C  0.45618926  0.25245793  0.19374278     1.02000
O117        O  0.44839281  0.22944870  0.19097354    -0.78500
O118        O  0.47663249  0.20725727  0.15188645    -0.78700
C119        C  0.49614847  0.19909952  0.14000622     1.01900
O120        O  0.51976859  0.16198604  0.19878308    -0.86000
O121        O  0.54662006  0.20185799  0.22114651    -0.83100
C122        C  0.53871335  0.20333642  0.24413639     0.97500
O123        O  0.51592922  0.21027432  0.24885944    -0.83100
O124        O  0.46437035  0.22071712  0.24043733    -0.85700
C125        C  0.45285508  0.19925665  0.24025718     1.02000
O126        O  0.45617952  0.18390526  0.22177606    -0.78500
O127        O  0.48137251  0.16057516  0.18126071    -0.78700
C128        C  0.50080514  0.14921410  0.19049327     1.01900
Cr129      Cr  0.52746427  0.19768091  0.18804752     1.93700
Cr130      Cr  0.49708317  0.23252998  0.22431850     1.93200
Cr131      Cr  0.46806501  0.19630589  0.18746364     1.39100
O132        O  0.49749911  0.20877076  0.19992169    -1.23700
O133        O  0.52612069  0.84230264  0.19362073    -0.86000
O134        O  0.55376297  0.80377291  0.21790808    -0.83000
C135        C  0.54640063  0.80212680  0.24110731     0.97500
O136        O  0.52342423  0.79609726  0.24634868    -0.83100
O137        O  0.47205333  0.78378187  0.24072542    -0.85700
C138        C  0.46064402  0.80512943  0.24020330     1.02000
O139        O  0.46309711  0.81978931  0.22082633    -0.78500
O140        O  0.48698558  0.84176221  0.17784023    -0.78700
C141        C  0.50660899  0.85413820  0.18542246     1.01900
O142        O  0.52052185  0.81063560  0.14892307    -0.86000
O143        O  0.54437232  0.77055447  0.17494993    -0.83100
C144        C  0.54781131  0.75345013  0.19190368     0.97500
O145        O  0.53671202  0.75526788  0.21341074    -0.83100
O146        O  0.48541952  0.74633171  0.20329037    -0.85700
C147        C  0.46283476  0.75031993  0.19545107     1.02000
O148        O  0.45498009  0.77316630  0.19221827    -0.78500
O149        O  0.48194660  0.79365430  0.15113000    -0.78700
C150        C  0.50118102  0.80075612  0.13792847     1.01900
Cr151      Cr  0.53371073  0.80600825  0.18490945     1.93700
Cr152      Cr  0.50434031  0.77228330  0.22380725     1.93200
Cr153      Cr  0.47419768  0.80627882  0.18641034     1.39100
O154        O  0.50406273  0.79497698  0.19834798    -1.23700
O155        O  0.48075738  0.96966760  0.21277019    -0.86000
O156        O  0.45380590  0.97921623  0.25570940    -0.83000
C157        C  0.46200259  0.96244062  0.27141769     0.97500
O158        O  0.48480530  0.96349174  0.27973706    -0.83100
O159        O  0.53544953  0.97805217  0.28580231    -0.85700
C160        C  0.54689463  0.96288237  0.27084023     1.02000
O161        O  0.54320681  0.96422577  0.24694630    -0.78500
O162        O  0.52049118  0.97828521  0.20161297    -0.78700
C163        C  0.50111111  0.96335970  0.20139638     1.01900
O164        O  0.48797679  0.02449760  0.20339758    -0.86000
O165        O  0.46380820  0.03363771  0.24961987    -0.83100
C166        C  0.45902115  0.03191739  0.27335551     0.97500
O167        O  0.46973755  0.01492183  0.28681750    -0.83100
O168        O  0.52056764  0.03008448  0.28503262    -0.85700
C169        C  0.54346741  0.03280278  0.27723837     1.02000
O170        O  0.55250243  0.01809599  0.25988802    -0.78500
O171        O  0.52705402  0.03221844  0.21696167    -0.78700
C172        C  0.50716136  0.03944959  0.20533463     1.01900
Cr173      Cr  0.47389150  0.00168707  0.23124478     1.93700
Cr174      Cr  0.50269441  0.99677582  0.28188631     1.93200
Cr175      Cr  0.53353106  0.99822492  0.23214991     1.39100
O176        O  0.50339448  0.99896520  0.24823481    -1.23700
O177        O  0.77264052  0.48019911  0.02258917    -0.86000
O178        O  0.72850284  0.45561293  0.01065652    -0.83000
C179        C  0.71272976  0.46432461  0.02713738     0.97500
O180        O  0.70536126  0.48742128  0.02629910    -0.83100
O181        O  0.70350338  0.53883641  0.01291988    -0.85700
C182        C  0.71903275  0.54805027  0.02914219     1.02000
O183        O  0.74267652  0.54328751  0.02756203    -0.78500
O184        O  0.78692970  0.51878497  0.01343690    -0.78700
C185        C  0.78523939  0.49990858  0.02884111     1.01900
O186        O  0.78439891  0.48754235  0.96781339    -0.86000
O187        O  0.73754139  0.46600224  0.95668131    -0.83100
C188        C  0.71359025  0.46230756  0.95708722     0.97500
O189        O  0.69981241  0.47341587  0.97371466    -0.83100
O190        O  0.70539542  0.52419985  0.96008792    -0.85700
C191        C  0.71467652  0.54655943  0.95825737     1.02000
O192        O  0.73143929  0.55468292  0.97402530    -0.78500
O193        O  0.77279688  0.52717046  0.95969160    -0.78700
C194        C  0.78365383  0.50674691  0.95272394     1.01900
Cr195      Cr  0.75505713  0.47454671  0.98956422     1.93700
Cr196      Cr  0.70591322  0.50594537  0.99317314     1.93200
Cr197      Cr  0.75751166  0.53387490  0.99363257     1.39100
O198        O  0.73963717  0.50477235  0.99212887    -1.23700
O199        O  0.83867387  0.51665012  0.80119776    -0.86000
O200        O  0.81439109  0.54003417  0.76026252    -0.83000
C201        C  0.79897771  0.54390658  0.74198433     0.97500
O202        O  0.77733136  0.53286716  0.74208788    -0.83100
O203        O  0.78955575  0.48183871  0.73393977    -0.85700
C204        C  0.79686595  0.45906553  0.73801478     1.02000
O205        O  0.79862805  0.45075036  0.76096085    -0.78500
O206        O  0.83785747  0.47793944  0.78448251    -0.78700
C207        C  0.85044147  0.49718955  0.79245481     1.01900
O208        O  0.79195338  0.52108106  0.83061209    -0.86000
O209        O  0.76901734  0.54841662  0.79131621    -0.83100
C210        C  0.74613136  0.54023218  0.78864841     0.97500
O211        O  0.74195397  0.51760036  0.78084593    -0.83100
O212        O  0.74997687  0.46666693  0.76855198    -0.85700
C213        C  0.74913730  0.45517183  0.78996793     1.02000
O214        O  0.76702622  0.45844861  0.80606028    -0.78500
O215        O  0.80788434  0.48202636  0.83094004    -0.78700
C216        C  0.79939712  0.50148300  0.84286616     1.01900
Cr217      Cr  0.80254094  0.52916199  0.79490410     1.93700
Cr218      Cr  0.76668220  0.49971961  0.75840492     1.93200
Cr219      Cr  0.80196794  0.46970089  0.79473209     1.39100
O220        O  0.79040450  0.49953182  0.78286277    -1.23700
O221        O  0.96795946  0.47922668  0.76225166    -0.86000
O222        O  0.98006945  0.45641778  0.71748798    -0.83000
C223        C  0.96420557  0.46608539  0.70165338     0.97500
O224        O  0.96598113  0.48953402  0.69523006    -0.83100
O225        O  0.98118949  0.54096914  0.69538364    -0.85700
C226        C  0.96536316  0.55072838  0.71093015     1.02000
O227        O  0.96584925  0.54485692  0.73435735    -0.78500
O228        O  0.97596719  0.51767317  0.77756458    -0.78700
C229        C  0.96086224  0.49851569  0.77498082     1.01900
O230        O  0.02237545  0.48463930  0.77547059    -0.86000
O231        O  0.03411317  0.46499173  0.72783536    -0.83100
C232        C  0.03384658  0.46220968  0.70374804     0.97500
O233        O  0.01805891  0.47472100  0.69026394    -0.83100
O234        O  0.03308435  0.52486413  0.69755350    -0.85700
C235        C  0.03568303  0.54696104  0.70724352     1.02000
O236        O  0.02043104  0.55465784  0.72485356    -0.78500
O237        O  0.03151275  0.52474513  0.76624088    -0.78700
C238        C  0.03778232  0.50358683  0.77616491     1.01900
Cr239      Cr  0.00111872  0.47375403  0.74508971     1.93700
Cr240      Cr  0.99955367  0.50739679  0.69711036     1.93200
Cr241      Cr  0.99857069  0.53328701  0.74975209     1.10300
O242        O  0.99974345  0.50483016  0.73082935    -1.23700
O243        O  0.84005867  0.47979514  0.19654958    -0.86000
O244        O  0.80040859  0.45242074  0.21966051    -0.83000
C245        C  0.79793096  0.46040352  0.24262475     0.97500
O246        O  0.79181390  0.48344622  0.24674606    -0.83100
O247        O  0.77989754  0.53443408  0.23968004    -0.85700
C248        C  0.80130762  0.54600900  0.24014663     1.02000
O249        O  0.81720855  0.54248062  0.22204667    -0.78500
O250        O  0.84124452  0.51869798  0.18029272    -0.78700
C251        C  0.85286133  0.49884637  0.18847897     1.01900
O252        O  0.81053328  0.48509398  0.15025232    -0.86000
O253        O  0.76939798  0.46060335  0.17475549    -0.83100
C254        C  0.75181711  0.45661778  0.19114705     0.97500
O255        O  0.75220173  0.46868485  0.21224719    -0.83100
O256        O  0.74450845  0.51991437  0.20074431    -0.85700
C257        C  0.74873117  0.54296836  0.19440465     1.02000
O258        O  0.77173598  0.55090286  0.19147837    -0.78500
O259        O  0.79443403  0.52403207  0.15132491    -0.78700
C260        C  0.80205496  0.50479910  0.13862867     1.01900
Cr261      Cr  0.80427932  0.47196901  0.18620645     1.93700
Cr262      Cr  0.76905977  0.50161508  0.22282465     1.93200
Cr263      Cr  0.80523324  0.53160156  0.18711109     1.39100
O264        O  0.79288633  0.50173305  0.19853781    -1.23700
O265        O  0.97039933  0.52103691  0.21414608    -0.86000
O266        O  0.98034426  0.54569782  0.25854401    -0.83000
C267        C  0.96278607  0.53781494  0.27365096     0.97500
O268        O  0.96196207  0.51464852  0.28111068    -0.83100
O269        O  0.97456878  0.46268164  0.28600811    -0.85700
C270        C  0.95969788  0.45222860  0.26995667     1.02000
O271        O  0.96248146  0.45650807  0.24627649    -0.78500
O272        O  0.97752995  0.48119256  0.20239173    -0.78700
C273        C  0.96319671  0.50092592  0.20271919     1.01900
O274        O  0.02560183  0.51261427  0.20579055    -0.86000
O275        O  0.03425445  0.53395405  0.25344069    -0.83100
C276        C  0.03232897  0.53816729  0.27727686     0.97500
O277        O  0.01422764  0.52796727  0.28998109    -0.83100
O278        O  0.02726499  0.47718403  0.28653001    -0.85700
C279        C  0.03113207  0.45526232  0.27686397     1.02000
O280        O  0.01617238  0.44639562  0.25965666    -0.78500
O281        O  0.03129616  0.47288111  0.21803592    -0.78700
C282        C  0.03973253  0.49286381  0.20722673     1.01900
Cr283      Cr  0.00239545  0.52597834  0.23375696     1.93700
Cr284      Cr  0.99461772  0.49554474  0.28340429     1.93200
Cr285      Cr  0.99686777  0.46648897  0.23250982     1.39100
O286        O  0.99787309  0.49596332  0.24969299    -1.23700
O287        O  0.16189662  0.51678068  0.18010088    -0.86000
O288        O  0.18664608  0.54080805  0.22064479    -0.83000
C289        C  0.20268276  0.54472100  0.23844438     0.97500
O290        O  0.22425930  0.53373628  0.23792043    -0.83100
O291        O  0.21271317  0.48283890  0.24685207    -0.85700
C292        C  0.20559032  0.45995813  0.24312809     1.02000
O293        O  0.20284155  0.45165344  0.22032279    -0.78500
O294        O  0.16292621  0.47871644  0.19830284    -0.78700
C295        C  0.15023825  0.49768019  0.19002480     1.01900
O296        O  0.20846550  0.52136777  0.15042719    -0.86000
O297        O  0.23156274  0.54965844  0.18951786    -0.83100
C298        C  0.25449567  0.54173123  0.19206694     0.97500
O299        O  0.25846508  0.51857012  0.19802271    -0.83100
O300        O  0.25092505  0.46774405  0.21104906    -0.85700
C301        C  0.25083867  0.45576569  0.18991981     1.02000
O302        O  0.23260389  0.45908400  0.17424165    -0.78500
O303        O  0.19095847  0.48285357  0.15078890    -0.78700
C304        C  0.19968668  0.50211939  0.13849078     1.01900
Cr305      Cr  0.19807516  0.52981825  0.18599131     1.93700
Cr306      Cr  0.23466846  0.50070311  0.22155176     1.93200
Cr307      Cr  0.19820544  0.47044078  0.18671225     1.39100
O308        O  0.21025361  0.50030136  0.19800533    -1.23700
O309        O  0.15985570  0.47646956  0.78428291    -0.86000
O310        O  0.19881165  0.44904991  0.76097544    -0.83000
C311        C  0.20133650  0.45693984  0.73792405     0.97500
O312        O  0.20916069  0.47951637  0.73347286    -0.83100
O313        O  0.22193163  0.53051620  0.74064001    -0.85700
C314        C  0.20049708  0.54180997  0.74002883     1.02000
O315        O  0.18455815  0.53818839  0.75807628    -0.78500
O316        O  0.15974917  0.51559429  0.79979177    -0.78700
C317        C  0.14761408  0.49600606  0.79173619     1.01900
O318        O  0.18979080  0.48145076  0.83067730    -0.86000
O319        O  0.23029968  0.45668655  0.80590576    -0.83100
C320        C  0.24806117  0.45266596  0.78980717     0.97500
O321        O  0.24792499  0.46447213  0.76853484    -0.83100
O322        O  0.25657198  0.51575290  0.78016807    -0.85700
C323        C  0.25245200  0.53873508  0.78667957     1.02000
O324        O  0.22952645  0.54673598  0.78894339    -0.78500
O325        O  0.20610747  0.52045853  0.82902688    -0.78700
C326        C  0.19796287  0.50151310  0.84200327     1.01900
Cr327      Cr  0.19564377  0.46834582  0.79451851     1.93700
Cr328      Cr  0.23189856  0.49756366  0.75778356     1.93200
Cr329      Cr  0.19590362  0.52780404  0.79310730     1.39100
O330        O  0.20776420  0.49787149  0.78196060    -1.23700
O331        O  0.21434121  0.48582986  0.96696883    -0.86000
O332        O  0.26161272  0.46647493  0.95533655    -0.83000
C333        C  0.28577027  0.46569886  0.95397721     0.97500
O334        O  0.29916511  0.47709823  0.97055326    -0.83100
O335        O  0.28948267  0.52712909  0.95636312    -0.85700
C336        C  0.27960410  0.54924166  0.95539308     1.02000
O337        O  0.26353902  0.55638608  0.97236789    -0.78500
O338        O  0.22279045  0.52666351  0.96000785    -0.78700
C339        C  0.21347238  0.50553727  0.95244568     1.01900
O340        O  0.22703900  0.47921723  0.02187106    -0.86000
O341        O  0.27254469  0.45762619  0.00972994    -0.83100
C342        C  0.28943272  0.46773333  0.02435124     0.97500
O343        O  0.29515548  0.49127741  0.02243395    -0.83100
O344        O  0.29333445  0.54210005  0.00852835    -0.85700
C345        C  0.27953805  0.54822282  0.02744897     1.02000
O346        O  0.25568064  0.54368829  0.02682367    -0.78500
O347        O  0.21136259  0.51741845  0.01398593    -0.78700
C348        C  0.21389090  0.49823554  0.02879591     1.01900
Cr349      Cr  0.24448246  0.47454938  0.98861393     1.93700
Cr350      Cr  0.29185439  0.50918764  0.98948822     1.93200
Cr351      Cr  0.23937398  0.53401337  0.99322969     1.39100
O352        O  0.25832906  0.50578338  0.99046440    -1.23700
O353        O  0.02616127  0.78932428  0.47586575    -0.86000
O354        O  0.03852859  0.74336470  0.45363810    -0.83000
C355        C  0.03949310  0.71925468  0.45146197     0.97500
O356        O  0.02175229  0.70538880  0.46047665    -0.83100
O357        O  0.03400469  0.70995208  0.51158063    -0.85700
C358        C  0.03491568  0.71850711  0.53426102     1.02000
O359        O  0.01873224  0.73498949  0.54213100    -0.78500
O360        O  0.03280854  0.77722478  0.51560319    -0.78700
C361        C  0.04082111  0.78779852  0.49530624     1.01900
O362        O  0.97175357  0.77704028  0.46679418    -0.86000
O363        O  0.98482367  0.73348479  0.44148872    -0.83100
C364        C  0.96865896  0.71689125  0.44961825     0.97500
O365        O  0.96908970  0.70945938  0.47277861    -0.83100
O366        O  0.98127802  0.70680296  0.52421445    -0.85700
C367        C  0.96483900  0.72143297  0.53422643     1.02000
O368        O  0.96522898  0.74522561  0.52965895    -0.78500
O369        O  0.97883751  0.79046182  0.50598038    -0.78700
C370        C  0.96425763  0.78891168  0.48648216     1.01900
Cr371      Cr  0.00510282  0.76008205  0.46160415     1.93700
Cr372      Cr  0.00150804  0.71032857  0.49222616     1.93200
Cr373      Cr  0.99901772  0.76114934  0.52110664     1.39100
O374        O  0.00183764  0.74402592  0.49163169    -1.23700
O375        O  0.79607300  0.83894013  0.51514888    -0.86000
O376        O  0.77184882  0.80013878  0.54166444    -0.83000
C377        C  0.74916931  0.79890951  0.53284879     0.97500
O378        O  0.74484576  0.79051974  0.51048178    -0.83100
O379        O  0.75334471  0.77682035  0.45982503    -0.85700
C380        C  0.75327897  0.79799083  0.44799658     1.02000
O381        O  0.77124820  0.81398520  0.45165704    -0.78500
O382        O  0.81137892  0.83933400  0.47572094    -0.78700
C383        C  0.80304739  0.85122524  0.49528624     1.01900
O384        O  0.84198849  0.80901577  0.51144014    -0.86000
O385        O  0.81642539  0.76776287  0.53453171    -0.83100
C386        C  0.80002650  0.74998619  0.53764603     0.97500
O387        O  0.77853703  0.75139480  0.52663135    -0.83100
O388        O  0.79168175  0.74202217  0.47589182    -0.85700
C389        C  0.79988004  0.74606613  0.45334468     1.02000
O390        O  0.80292019  0.76900011  0.44527913    -0.78500
O391        O  0.84183897  0.79359132  0.47216233    -0.78700
C392        C  0.85401603  0.80150676  0.49166516     1.01900
Cr393      Cr  0.80569735  0.80292389  0.52325517     1.93700
Cr394      Cr  0.76922615  0.76725169  0.49325058     1.93200
Cr395      Cr  0.80591324  0.80301854  0.46364946     1.39100
O396        O  0.79377152  0.79117854  0.49335835    -1.23700
O397        O  0.78635390  0.97526859  0.47596979    -0.86000
O398        O  0.74155908  0.96355482  0.45122491    -0.83000
C399        C  0.71807230  0.96374820  0.44554568     0.97500
O400        O  0.70351579  0.98105388  0.45434410    -0.83100
O401        O  0.70355335  0.96921746  0.50610119    -0.85700
C402        C  0.71103508  0.96753578  0.52916238     1.02000
O403        O  0.72742973  0.98331308  0.53813476    -0.78500
O404        O  0.77124077  0.96863285  0.51474804    -0.78700
C405        C  0.78406007  0.96099771  0.49570060     1.01900
O406        O  0.77557022  0.02971237  0.46594186    -0.86000
O407        O  0.73396521  0.01747311  0.43780400    -0.83100
C408        C  0.71800379  0.03454780  0.44489396     0.97500
O409        O  0.70857223  0.03409701  0.46730950    -0.83100
O410        O  0.70092815  0.02220297  0.51871892    -0.85700
C411        C  0.71561405  0.03795787  0.52994246     1.02000
O412        O  0.73959382  0.03663602  0.52689537    -0.78500
O413        O  0.78591002  0.02233951  0.50594335    -0.78700
C414        C  0.78558945  0.03724635  0.48663369     1.01900
Cr415      Cr  0.75840170  0.99667556  0.45990789     1.93700
Cr416      Cr  0.70655034  0.00157944  0.48673198     1.93200
Cr417      Cr  0.75530323  0.00264121  0.51916666     1.39100
O418        O  0.74022366  0.00026241  0.48865902    -1.23700
O419        O  0.16441106  0.79187700  0.51149192    -0.86000
O420        O  0.20430836  0.76785582  0.53655496    -0.83000
C421        C  0.20496342  0.74508248  0.52798603     0.97500
O422        O  0.21107575  0.74088492  0.50482693    -0.83100
O423        O  0.22169817  0.74985811  0.45321115    -0.85700
C424        C  0.20065906  0.75128038  0.44125256     1.02000
O425        O  0.18543414  0.76960033  0.44579647    -0.78500
O426        O  0.16273812  0.80940494  0.47297257    -0.78700
C427        C  0.15150726  0.80040382  0.49278495     1.01900
O428        O  0.19422569  0.83802232  0.50720864    -0.86000
O429        O  0.23600736  0.81227572  0.52740394    -0.83100
C430        C  0.25382793  0.79598015  0.52947238     0.97500
O431        O  0.25217593  0.77449269  0.51837410    -0.83100
O432        O  0.25857339  0.78710150  0.46766480    -0.85700
C433        C  0.25412063  0.79603756  0.44556172     1.02000
O434        O  0.23119760  0.80019283  0.43833633    -0.78500
O435        O  0.20975259  0.83873957  0.46799527    -0.78700
C436        C  0.20259685  0.85048913  0.48800844     1.01900
Cr437      Cr  0.20055433  0.80159427  0.51812918     1.93700
Cr438      Cr  0.23385136  0.76509422  0.48612812     1.93200
Cr439      Cr  0.19823562  0.80346191  0.45868239     1.39100
O440        O  0.21073402  0.79004433  0.48756451    -1.23700
O441        O  0.21575670  0.97536186  0.51199523    -0.86000
O442        O  0.26153530  0.96631124  0.53587880    -0.83000
C443        C  0.28556399  0.96604547  0.53884710     0.97500
O444        O  0.29955601  0.98338098  0.52894643    -0.83100
O445        O  0.29723134  0.97231442  0.47701810    -0.85700
C446        C  0.28886719  0.97095427  0.45427006     1.02000
O447        O  0.27099531  0.98563980  0.44657077    -0.78500
O448        O  0.22923227  0.96904488  0.47255678    -0.78700
C449        C  0.21802543  0.96087768  0.49242065     1.01900
O450        O  0.22510522  0.03122044  0.52036365    -0.86000
O451        O  0.26816236  0.02030064  0.54738604    -0.83100
C452        C  0.28374646  0.03745517  0.53944886     0.97500
O453        O  0.29248984  0.03673660  0.51679430    -0.83100
O454        O  0.29661034  0.02585675  0.46534387    -0.85700
C455        C  0.28058503  0.04085979  0.45507062     1.02000
O456        O  0.25688872  0.03804657  0.45864746    -0.78500
O457        O  0.21261681  0.02234379  0.48137886    -0.78700
C458        C  0.21353165  0.03786453  0.50019456     1.01900
Cr459      Cr  0.24341287  0.99853455  0.52663882     1.93700
Cr460      Cr  0.29395749  0.00440022  0.49707943     1.93200
Cr461      Cr  0.24336224  0.00360682  0.46713762     1.39100
O462        O  0.26019074  0.00200315  0.49696057    -1.23700
O463        O  0.83863325  0.18825488  0.50887492    -0.86000
O464        O  0.81413998  0.22877875  0.53422288    -0.83000
C465        C  0.79829094  0.24675065  0.53828529     0.97500
O466        O  0.77701322  0.24664390  0.52660427    -0.83100
O467        O  0.78912454  0.25648999  0.47580577    -0.85700
C468        C  0.79609720  0.25338170  0.45275653     1.02000
O469        O  0.79942116  0.23091916  0.44397041    -0.78500
O470        O  0.83878730  0.20645774  0.47075707    -0.78700
C471        C  0.85085547  0.19716588  0.48968946     1.01900
O472        O  0.79202581  0.15882898  0.51170496    -0.86000
O473        O  0.76916583  0.19720761  0.54053987    -0.83100
C474        C  0.74623105  0.20016584  0.53291445     0.97500
O475        O  0.74172942  0.20822386  0.51044936    -0.83100
O476        O  0.75008866  0.22224190  0.45960267    -0.85700
C477        C  0.75036331  0.20212320  0.44601083     1.02000
O478        O  0.76821717  0.18593540  0.44897840    -0.78500
O479        O  0.80867636  0.16044010  0.47285058    -0.78700
C480        C  0.79964716  0.14761421  0.49151955     1.01900
Cr481      Cr  0.80256442  0.19430407  0.52137670     1.93700
Cr482      Cr  0.76653927  0.23130922  0.49301784     1.93200
Cr483      Cr  0.80286265  0.19677892  0.46175018     1.39100
O484        O  0.79066970  0.20732253  0.49201464    -1.23700
O485        O  0.20669313  0.16103564  0.51106940    -0.86000
O486        O  0.23083625  0.20030710  0.53772867    -0.83000
C487        C  0.25387711  0.20328484  0.53005492     0.97500
O488        O  0.25865473  0.21123998  0.50761309    -0.83100
O489        O  0.25072787  0.22222769  0.45646919    -0.85700
C490        C  0.25105174  0.20043338  0.44572809     1.02000
O491        O  0.23270882  0.18481106  0.44925501    -0.78500
O492        O  0.19085177  0.16056059  0.47202762    -0.78700
C493        C  0.19884582  0.14856232  0.49172563     1.01900
O494        O  0.16084683  0.19193374  0.50615294    -0.86000
O495        O  0.18630221  0.23209245  0.53005777    -0.83100
C496        C  0.20218332  0.25005799  0.53404927     0.97500
O497        O  0.22348748  0.24999639  0.52232411    -0.83100
O498        O  0.21104994  0.25699286  0.47130962    -0.85700
C499        C  0.20479082  0.25320830  0.44822728     1.02000
O500        O  0.20259909  0.23034708  0.43985696    -0.78500
O501        O  0.16233994  0.20787957  0.46701169    -0.78700
C502        C  0.14945500  0.20077329  0.48645462     1.01900
Cr503      Cr  0.19717156  0.19719933  0.51885908     1.93700
Cr504      Cr  0.23389839  0.23309200  0.48932493     1.93200
Cr505      Cr  0.19801909  0.19681759  0.45946036     1.39100
O506        O  0.20973056  0.20881071  0.48927547    -1.23700
O507        O  0.97509314  0.21070110  0.47187482    -0.86000
O508        O  0.96057215  0.25471687  0.44658131    -0.83000
C509        C  0.95877210  0.27852621  0.44226414     0.97500
O510        O  0.97401106  0.29407494  0.45295067    -0.83100
O511        O  0.96326204  0.29026890  0.50497788    -0.85700
C512        C  0.96460646  0.28360379  0.52827789     1.02000
O513        O  0.98182992  0.26804478  0.53583502    -0.78500
O514        O  0.96949954  0.22366698  0.51154604    -0.78700
C515        C  0.96130968  0.21180267  0.49214572     1.01900
O516        O  0.02954316  0.22543403  0.46119258    -0.86000
O517        O  0.01409442  0.26698709  0.43442231    -0.83100
C518        C  0.02840603  0.28546943  0.44184630     0.97500
O519        O  0.02684218  0.29427608  0.46435433    -0.83100
O520        O  0.01645584  0.29733959  0.51567953    -0.85700
C521        C  0.03504030  0.28440069  0.52427454     1.02000
O522        O  0.03526853  0.26033222  0.52155468    -0.78500
O523        O  0.02388371  0.21335790  0.50099852    -0.78700
C524        C  0.03822718  0.21514706  0.48130347     1.01900
Cr525      Cr  0.99497698  0.24025211  0.45579245     1.93700
Cr526      Cr  0.99517465  0.29144213  0.48454816     1.93200
Cr527      Cr  0.00227278  0.24209668  0.51518813     1.39100
O528        O  0.99740005  0.25776015  0.48507245    -1.23700
O529        O  0.83140615  0.33931824  0.61977576    -0.86000
O530        O  0.88023667  0.33991614  0.60195555    -0.83000
C531        C  0.90028366  0.34759953  0.59073160     0.97500
O532        O  0.90553563  0.37133421  0.59026529    -0.83100
O533        O  0.86903694  0.38418741  0.55396858    -0.85700
C534        C  0.84778393  0.39012963  0.54387525     1.02000
O535        O  0.82980598  0.39926407  0.55775309    -0.78500
O536        O  0.81433318  0.35819865  0.58611095    -0.78700
C537        C  0.81888882  0.33810292  0.59888794     1.01900
O538        O  0.84461362  0.38205408  0.65404402    -0.86000
O539        O  0.89424671  0.38019436  0.63933496    -0.83100
C540        C  0.89911162  0.40414962  0.63742829     0.97500
O541        O  0.89178045  0.41674096  0.61806037    -0.83100
O542        O  0.86171516  0.43260168  0.57823377    -0.85700
C543        C  0.84514712  0.44392756  0.59182217     1.02000
O544        O  0.82916845  0.43072327  0.60453884    -0.78500
O545        O  0.80961582  0.39045231  0.63210360    -0.78700
C546        C  0.82254066  0.39178175  0.65276079     1.01900
Cr547      Cr  0.86200091  0.36189895  0.62714011     1.93700
Cr548      Cr  0.88026127  0.40008387  0.58636059     1.93200
Cr549      Cr  0.82280866  0.39393198  0.59580604     1.39100
O550        O  0.85482636  0.38520219  0.60322886    -1.23700
O551        O  0.66384287  0.84754828  0.60829223    -0.86000
O552        O  0.64739475  0.89612181  0.61293654    -0.83000
C553        C  0.64645293  0.90171358  0.58913298     0.97500
O554        O  0.62779079  0.89445247  0.57551667    -0.83100
O555        O  0.59125309  0.86258366  0.55579886    -0.85700
C556        C  0.60602175  0.84644411  0.54509011     1.02000
O557        O  0.61883143  0.83107038  0.55875208    -0.78500
O558        O  0.64370682  0.81152264  0.60103070    -0.78700
C559        C  0.66355382  0.82544111  0.59853458     1.01900
O560        O  0.62870781  0.83034983  0.64958679    -0.86000
O561        O  0.60977159  0.87840335  0.65115279    -0.83100
C562        C  0.59815882  0.89827895  0.64402652     0.97500
O563        O  0.59707214  0.90404895  0.62035773    -0.83100
O564        O  0.56362104  0.86656004  0.60370802    -0.85700
C565        C  0.55520726  0.84505663  0.59623243     1.02000
O566        O  0.57021558  0.82861547  0.58629476    -0.78500
O567        O  0.59569399  0.81426686  0.62904328    -0.78700
C568        C  0.60720082  0.81869619  0.64989027     1.01900
Cr569      Cr  0.63599082  0.86245366  0.62895518     1.93700
Cr570      Cr  0.59603910  0.88033053  0.58990389     1.93200
Cr571      Cr  0.60770786  0.82332673  0.59449262     1.39100
O572        O  0.61329197  0.85532594  0.60453645    -1.23700
O573        O  0.37242096  0.82092751  0.64865614    -0.86000
O574        O  0.38782289  0.86986019  0.65366404    -0.83000
C575        C  0.39822444  0.89092840  0.64822419     0.97500
O576        O  0.39957521  0.89855903  0.62514965    -0.83100
O577        O  0.43573844  0.86425724  0.60669469    -0.85700
C578        C  0.44552737  0.84383282  0.59805050     1.02000
O579        O  0.43168058  0.82733833  0.58655143    -0.78500
O580        O  0.40631107  0.80824132  0.62723485    -0.78700
C581        C  0.39444517  0.81041413  0.64817269     1.01900
O582        O  0.33671472  0.83812499  0.60843087    -0.86000
O583        O  0.34957659  0.88767438  0.61580085    -0.83100
C584        C  0.35131822  0.89586995  0.59269596     0.97500
O585        O  0.37064510  0.89043188  0.57910637    -0.83100
O586        O  0.40937279  0.86212046  0.55837893    -0.85700
C587        C  0.39636291  0.84553496  0.54613450     1.02000
O588        O  0.38411311  0.82830421  0.55808962    -0.78500
O589        O  0.35908647  0.80418813  0.59772378    -0.78700
C590        C  0.33830537  0.81678157  0.59732588     1.01900
Cr591      Cr  0.36317320  0.85373024  0.63001456     1.93700
Cr592      Cr  0.40277129  0.87702000  0.59326321     1.93200
Cr593      Cr  0.39448267  0.81899297  0.59335156     1.39100
O594        O  0.38662283  0.84985577  0.60550901    -1.23700
O595        O  0.84592278  0.62038679  0.65577496    -0.86000
O596        O  0.89505497  0.62892650  0.64225809    -0.83000
C597        C  0.90174633  0.60560635  0.64395926     0.97500
O598        O  0.89607721  0.58978897  0.62649075    -0.83100
O599        O  0.86937866  0.56625233  0.58739339    -0.85700
C600        C  0.85099773  0.55514801  0.59900933     1.02000
O601        O  0.83401731  0.56831671  0.61007237    -0.78500
O602        O  0.81172460  0.60915479  0.63391728    -0.78700
C603        C  0.82452394  0.60912189  0.65474836     1.01900
O604        O  0.82816120  0.65835989  0.61973702    -0.86000
O605        O  0.87720202  0.66303630  0.60198209    -0.83100
C606        C  0.89857595  0.65675872  0.59267468     0.97500
O607        O  0.90601618  0.63357576  0.59365402    -0.83100
O608        O  0.87407884  0.61206889  0.55756216    -0.85700
C609        C  0.85345362  0.60435291  0.54726642     1.02000
O610        O  0.83521351  0.59570285  0.56120460    -0.78500
O611        O  0.81644416  0.63774571  0.58511305    -0.78700
C612        C  0.81827144  0.65838103  0.59757662     1.01900
Cr613      Cr  0.86115398  0.64102515  0.62837176     1.93700
Cr614      Cr  0.88462204  0.60137061  0.59231856     1.93200
Cr615      Cr  0.82627828  0.60366859  0.59827630     1.39100
O616        O  0.85723131  0.61533058  0.60623612    -1.23700
O617        O  0.84694310  0.66451683  0.37365253    -0.86000
O618        O  0.89673812  0.65134193  0.36826814    -0.83000
C619        C  0.90281546  0.65026096  0.39190566     0.97500
O620        O  0.89660506  0.63104691  0.40539359    -0.83100
O621        O  0.86753765  0.59156757  0.42438802    -0.85700
C622        C  0.85020737  0.60435264  0.43560272     1.02000
O623        O  0.83293847  0.61534830  0.42263732    -0.78500
O624        O  0.81227350  0.64189691  0.38214943    -0.78700
C625        C  0.82497944  0.66275707  0.38368646     1.01900
O626        O  0.83218223  0.63003109  0.33164367    -0.86000
O627        O  0.88083022  0.61339603  0.32982875    -0.83100
C628        C  0.90101827  0.60218629  0.33655764     0.97500
O629        O  0.90774388  0.60189822  0.35989920    -0.83100
O630        O  0.87308425  0.56522137  0.37638486    -0.85700
C631        C  0.85200976  0.55490889  0.38290084     1.02000
O632        O  0.83413524  0.56858783  0.39226439    -0.78500
O633        O  0.81763094  0.59526557  0.35072944    -0.78700
C634        C  0.82126599  0.60821540  0.33051554     1.01900
Cr635      Cr  0.86364980  0.63822591  0.35247697     1.93700
Cr636      Cr  0.88440340  0.59855825  0.39046490     1.93200
Cr637      Cr  0.82630685  0.60604436  0.38612070     1.39100
O638        O  0.85799512  0.61437267  0.37640819    -1.23700
O639        O  0.33336264  0.62072671  0.82950881    -0.86000
O640        O  0.34352107  0.62791752  0.87970367    -0.83000
C641        C  0.34202559  0.60443893  0.88640238     0.97500
O642        O  0.36009568  0.58907529  0.88163396    -0.83100
O643        O  0.40106184  0.56643797  0.85763545    -0.85700
C644        C  0.38933881  0.55474918  0.83989766     1.02000
O645        O  0.37953198  0.56746067  0.82172134    -0.78500
O646        O  0.35753869  0.60847986  0.79714277    -0.78700
C647        C  0.33588159  0.60903787  0.80848062     1.01900
O648        O  0.37154183  0.65851259  0.81458048    -0.86000
O649        O  0.38568169  0.66277960  0.86482092    -0.83100
C650        C  0.39422721  0.65580325  0.88635245     0.97500
O651        O  0.39098543  0.63282231  0.89363758    -0.83100
O652        O  0.42940539  0.61292665  0.86362429    -0.85700
C653        C  0.44092771  0.60475693  0.84391983     1.02000
O654        O  0.42821679  0.59520403  0.82529276    -0.78500
O655        O  0.40587117  0.63680230  0.80456512    -0.78700
C656        C  0.39442088  0.65799742  0.80637456     1.01900
Cr657      Cr  0.36001409  0.64090992  0.84684469     1.93700
Cr658      Cr  0.39449639  0.60125253  0.87231273     1.93200
Cr659      Cr  0.39190110  0.60292165  0.81396499     1.39100
O660        O  0.38204411  0.61498548  0.84419361    -1.23700
O661        O  0.61738268  0.66125869  0.83161565    -0.86000
O662        O  0.62343016  0.64833343  0.88123701    -0.83000
C663        C  0.59989205  0.64901943  0.88757413     0.97500
O664        O  0.58484033  0.63085450  0.88187970    -0.83100
O665        O  0.56328695  0.59099570  0.85524371    -0.85700
C666        C  0.55212238  0.60366166  0.83778103     1.02000
O667        O  0.56515923  0.61443701  0.82032994    -0.78500
O668        O  0.60600232  0.63893346  0.79775084    -0.78700
C669        C  0.60630266  0.65998222  0.81017465     1.01900
O670        O  0.65637770  0.62478613  0.81581074    -0.86000
O671        O  0.65902831  0.60834229  0.86530659    -0.83100
C672        C  0.65222410  0.59974817  0.88688198     0.97500
O673        O  0.62883146  0.60014705  0.89351098    -0.83100
O674        O  0.61021586  0.56331685  0.86057411    -0.85700
C675        C  0.60275461  0.55286919  0.83998733     1.02000
O676        O  0.59335360  0.56628975  0.82182794    -0.78500
O677        O  0.63516144  0.59077961  0.80299725    -0.78700
C678        C  0.65606860  0.60280050  0.80540308     1.01900
Cr679      Cr  0.63738925  0.63409681  0.84800477     1.93700
Cr680      Cr  0.59779548  0.59731350  0.87095377     1.93200
Cr681      Cr  0.60081622  0.60335636  0.81264033     1.39100
O682        O  0.61198643  0.61163549  0.84369704    -1.23700
O683        O  0.63326693  0.82504893  0.32951893    -0.86000
O684        O  0.61643502  0.87446827  0.32617506    -0.83000
C685        C  0.60722080  0.89573742  0.33293477     0.97500
O686        O  0.60791708  0.90237071  0.35637114    -0.83100
O687        O  0.57041037  0.87015092  0.37527422    -0.85700
C688        C  0.55961528  0.84953881  0.38242698     1.02000
O689        O  0.57280755  0.83060061  0.39066454    -0.78500
O690        O  0.59890605  0.81182714  0.35000195    -0.78700
C691        C  0.61141957  0.81428980  0.32940783     1.01900
O692        O  0.66877477  0.84137406  0.36920709    -0.86000
O693        O  0.65588439  0.89072490  0.36266487    -0.83100
C694        C  0.65636975  0.89683900  0.38627726     0.97500
O695        O  0.63825265  0.89058820  0.40114359    -0.83100
O696        O  0.59748175  0.86422702  0.42211258    -0.85700
C697        C  0.60900972  0.84621567  0.43356074     1.02000
O698        O  0.62061250  0.82933235  0.42069692    -0.78500
O699        O  0.64626976  0.80745857  0.38054768    -0.78700
C700        C  0.66727788  0.82009551  0.38065098     1.01900
Cr701      Cr  0.64190933  0.85740037  0.34852654     1.93700
Cr702      Cr  0.60464671  0.87999425  0.38767292     1.93200
Cr703      Cr  0.61040623  0.82174433  0.38459341     1.39100
O704        O  0.61886608  0.85283568  0.37350631    -1.23700
O705        O  0.65907466  0.37134313  0.82133600    -0.86000
O706        O  0.66050289  0.38764683  0.87089368    -0.83000
C707        C  0.65287609  0.39738157  0.89167348     0.97500
O708        O  0.62937162  0.39600393  0.89772816    -0.83100
O709        O  0.61163162  0.43240444  0.86380948    -0.85700
C710        C  0.60456591  0.44242192  0.84285623     1.02000
O711        O  0.59524930  0.42863148  0.82496526    -0.78500
O712        O  0.63795083  0.40502779  0.80755798    -0.78700
C713        C  0.65879177  0.39316237  0.81043758     1.01900
O714        O  0.61947836  0.33442108  0.83609972    -0.86000
O715        O  0.62400549  0.34712324  0.88586513    -0.83100
C716        C  0.60023347  0.34648249  0.89151074     0.97500
O717        O  0.58568485  0.36477372  0.88526951    -0.83100
O718        O  0.56492415  0.40402601  0.85732329    -0.85700
C719        C  0.55422074  0.39137866  0.83947897     1.02000
O720        O  0.56787414  0.37985096  0.82313984    -0.78500
O721        O  0.60988331  0.35671883  0.80177261    -0.78700
C722        C  0.60872938  0.33592737  0.81449452     1.01900
Cr723      Cr  0.63920339  0.36163465  0.85302146     1.93700
Cr724      Cr  0.59896292  0.39830015  0.87431584     1.93200
Cr725      Cr  0.60356547  0.39183428  0.81633857     1.39100
O726        O  0.61398727  0.38390514  0.84774958    -1.23700
O727        O  0.66033018  0.17412103  0.36019051    -0.86000
O728        O  0.66342111  0.12505728  0.37631926    -0.83000
C729        C  0.65733647  0.10439838  0.38728733     0.97500
O730        O  0.63404098  0.09747647  0.38863493    -0.83100
O731        O  0.61865473  0.13190699  0.42600096    -0.85700
C732        C  0.61201792  0.15275299  0.43655107     1.02000
O733        O  0.60169311  0.17040692  0.42320837    -0.78500
O734        O  0.64158093  0.18835369  0.39516811    -0.78700
C735        C  0.66154993  0.18532331  0.38181651     1.01900
O736        O  0.61764014  0.15892552  0.32685275    -0.86000
O737        O  0.62359355  0.10904794  0.33962633    -0.83100
C738        C  0.60010205  0.10242704  0.34164743     0.97500
O739        O  0.58727593  0.10842459  0.36132730    -0.83100
O740        O  0.56951542  0.13671308  0.40173604    -0.85700
C741        C  0.55753809  0.15369384  0.38913070     1.02000
O742        O  0.56985098  0.17100952  0.37731511    -0.78500
O743        O  0.60902981  0.19321400  0.34958682    -0.78700
C744        C  0.60730155  0.18068588  0.32872285     1.01900
Cr745      Cr  0.63966915  0.14228056  0.35241629     1.93700
Cr746      Cr  0.60337253  0.12049143  0.39326774     1.93200
Cr747      Cr  0.60634091  0.17869648  0.38553166     1.39100
O748        O  0.61647775  0.14729582  0.37699589    -1.23700
O749        O  0.34245920  0.83433337  0.36249662    -0.86000
O750        O  0.34226528  0.88346907  0.38112184    -0.83000
C751        C  0.35018238  0.90412461  0.39106495     0.97500
O752        O  0.37377652  0.90983213  0.38960371    -0.83100
O753        O  0.38983563  0.87448886  0.42554179    -0.85700
C754        C  0.39679810  0.85347868  0.43545972     1.02000
O755        O  0.40476669  0.83502142  0.42145367    -0.78500
O756        O  0.36348275  0.81781855  0.39498521    -0.78700
C757        C  0.34264801  0.82164865  0.38328742     1.01900
O758        O  0.38241922  0.84950521  0.32623779    -0.86000
O759        O  0.37964873  0.89843038  0.34123434    -0.83100
C760        C  0.40377201  0.90214153  0.34037502     0.97500
O761        O  0.41771684  0.89638270  0.35928730    -0.83100
O762        O  0.43689179  0.86797178  0.39900813    -0.85700
C763        C  0.44804469  0.85120938  0.38552540     1.02000
O764        O  0.43465395  0.83492270  0.37354283    -0.78500
O765        O  0.39402520  0.81484705  0.34733998    -0.78700
C766        C  0.39374982  0.82819317  0.32679509     1.01900
Cr767      Cr  0.36323976  0.86583299  0.35439832     1.93700
Cr768      Cr  0.40340548  0.88544612  0.39221273     1.93200
Cr769      Cr  0.39836529  0.82768516  0.38369973     1.39100
O770        O  0.38819853  0.85938732  0.37676820    -1.23700
O771        O  0.17526722  0.65875833  0.61556829    -0.86000
O772        O  0.12620281  0.66189985  0.59870228    -0.83000
C773        C  0.10490459  0.65536280  0.58941789     0.97500
O774        O  0.09824414  0.63192953  0.58924759    -0.83100
O775        O  0.13315377  0.61336858  0.55333907    -0.85700
C776        C  0.15416155  0.60587840  0.54358804     1.02000
O777        O  0.17113425  0.59542032  0.55781100    -0.78500
O778        O  0.18978707  0.63619678  0.58318549    -0.78700
C779        C  0.18688197  0.65749999  0.59411564     1.01900
O780        O  0.15808964  0.61988675  0.65261993    -0.86000
O781        O  0.10894731  0.62567336  0.63862506    -0.83100
C782        C  0.10186209  0.60220197  0.63874994     0.97500
O783        O  0.10784694  0.58748005  0.62036251    -0.83100
O784        O  0.13646923  0.56594287  0.58123273    -0.85700
C785        C  0.15313328  0.55442602  0.59466173     1.02000
O786        O  0.16957990  0.56727444  0.60686656    -0.78500
O787        O  0.19229684  0.60723232  0.63169070    -0.78700
C788        C  0.17905470  0.60799566  0.65224937     1.01900
Cr789      Cr  0.14269527  0.63986263  0.62479753     1.93700
Cr790      Cr  0.12074352  0.60066037  0.58709809     1.93200
Cr791      Cr  0.17865348  0.60246967  0.59560616     1.39100
O792        O  0.14751221  0.61440515  0.60257246    -1.23700
O793        O  0.33606645  0.16387990  0.61232159    -0.86000
O794        O  0.34694092  0.11400768  0.61917907    -0.83000
C795        C  0.34643111  0.10666052  0.59583126     0.97500
O796        O  0.36479890  0.11184078  0.58078038    -0.83100
O797        O  0.40507782  0.13773557  0.55855700    -0.85700
C798        C  0.39290225  0.15515603  0.54681163     1.02000
O799        O  0.38161230  0.17243889  0.55935104    -0.78500
O800        O  0.35906215  0.19689641  0.59978168    -0.78700
C801        C  0.33793658  0.18465440  0.60003008     1.01900
O802        O  0.37399421  0.17945038  0.65052848    -0.86000
O803        O  0.38804930  0.12944266  0.65477197    -0.83100
C804        C  0.39651765  0.10779575  0.64829980     0.97500
O805        O  0.39556301  0.10080327  0.62502003    -0.83100
O806        O  0.43329386  0.13313161  0.60518470    -0.85700
C807        C  0.44405595  0.15328048  0.59656577     1.02000
O808        O  0.43061732  0.17106953  0.58651915    -0.78500
O809        O  0.40730297  0.19123671  0.62771834    -0.78700
C810        C  0.39646917  0.18889946  0.64919162     1.01900
Cr811      Cr  0.36278307  0.14714082  0.63258351     1.93700
Cr812      Cr  0.39872512  0.12271223  0.59337319     1.93200
Cr813      Cr  0.39380378  0.18099501  0.59432238     1.39100
O814        O  0.38506664  0.15042078  0.60684018    -1.23700
O815        O  0.83306651  0.37830808  0.32422428    -0.86000
O816        O  0.88347332  0.37196912  0.33333113    -0.83000
C817        C  0.89095998  0.39535500  0.33276069     0.97500
O818        O  0.88704341  0.40999971  0.35164476    -0.83100
O819        O  0.86348235  0.43182045  0.39312738    -0.85700
C820        C  0.84599339  0.44373401  0.38125638     1.02000
O821        O  0.82750798  0.43149927  0.37156207    -0.78500
O822        O  0.80171687  0.39184689  0.34908014    -0.78700
C823        C  0.81255965  0.39062487  0.32723379     1.01900
O824        O  0.81900319  0.33993546  0.36284315    -0.86000
O825        O  0.86934103  0.33570160  0.37505613    -0.83100
C826        C  0.89129190  0.34172908  0.38310380     0.97500
O827        O  0.89880280  0.36488170  0.38153107    -0.83100
O828        O  0.86842545  0.38424896  0.42035373    -0.85700
C829        C  0.84870544  0.39187687  0.43222220     1.02000
O830        O  0.83064999  0.40284452  0.41988442    -0.78500
O831        O  0.80846425  0.36280029  0.39644131    -0.78700
C832        C  0.80979881  0.34137784  0.38539744     1.01900
Cr833      Cr  0.85095377  0.35815460  0.35043969     1.93700
Cr834      Cr  0.87748249  0.39677974  0.38575803     1.93200
Cr835      Cr  0.81901302  0.39629285  0.38330370     1.39100
O836        O  0.84895694  0.38374287  0.37302461    -1.23700
O837        O  0.15237245  0.62020413  0.32206940    -0.86000
O838        O  0.10364695  0.62375061  0.33851489    -0.83000
C839        C  0.09804823  0.60004885  0.34056454     0.97500
O840        O  0.10623497  0.58682083  0.35911384    -0.83100
O841        O  0.13889146  0.56945463  0.39621565    -0.85700
C842        C  0.15582308  0.55885784  0.38234699     1.02000
O843        O  0.17122238  0.57255414  0.36943180    -0.78500
O844        O  0.18881502  0.61432506  0.34214868    -0.78700
C845        C  0.17504563  0.61211551  0.32208485     1.01900
O846        O  0.16815191  0.66278233  0.35499921    -0.86000
O847        O  0.12029774  0.66331375  0.37448753    -0.83100
C848        C  0.10186743  0.65573705  0.38812902     0.97500
O849        O  0.09594028  0.63211879  0.38897768    -0.83100
O850        O  0.13317267  0.61703698  0.42309398    -0.85700
C851        C  0.15477752  0.61082964  0.43216205     1.02000
O852        O  0.17217029  0.60213416  0.41726744    -0.78500
O853        O  0.18489466  0.64467619  0.38924129    -0.78700
C854        C  0.18015750  0.66448759  0.37613313     1.01900
Cr855      Cr  0.13679547  0.64092117  0.34910695     1.93700
Cr856      Cr  0.12019736  0.60244532  0.39057213     1.93200
Cr857      Cr  0.17719178  0.60911839  0.37891440     1.39100
O858        O  0.14479899  0.61753724  0.37281760    -1.23700
O859        O  0.15344185  0.37917979  0.65513936    -0.86000
O860        O  0.10376630  0.37551771  0.64204590    -0.83000
C861        C  0.09732128  0.39905321  0.64070111     0.97500
O862        O  0.10409762  0.41297305  0.62197656    -0.83100
O863        O  0.13318356  0.43191688  0.58215697    -0.85700
C864        C  0.15076212  0.44303550  0.59470214     1.02000
O865        O  0.16671098  0.42980509  0.60722622    -0.78500
O866        O  0.18782546  0.38879991  0.63257656    -0.78700
C867        C  0.17533751  0.38940381  0.65353538     1.01900
O868        O  0.16727065  0.33816057  0.61917334    -0.86000
O869        O  0.11805988  0.33717210  0.60286390    -0.83100
C870        C  0.09841931  0.34495925  0.59123609     0.97500
O871        O  0.09207894  0.36830504  0.59289554    -0.83100
O872        O  0.12688605  0.38429860  0.55588561    -0.85700
C873        C  0.14795253  0.39117043  0.54585132     1.02000
O874        O  0.16576586  0.40053319  0.55971320    -0.78500
O875        O  0.18276813  0.35880658  0.58559123    -0.78700
C876        C  0.17928427  0.33818972  0.59789831     1.01900
Cr877      Cr  0.13614766  0.35912110  0.62824036     1.93700
Cr878      Cr  0.11587464  0.39827078  0.58935269     1.93200
Cr879      Cr  0.17365201  0.39366658  0.59704318     1.39100
O880        O  0.14204261  0.38362075  0.60498648    -1.23700
O881        O  0.62701060  0.16848832  0.65350692    -0.86000
O882        O  0.60882945  0.11937921  0.65149588    -0.83000
C883        C  0.59825648  0.09958071  0.64240862     0.97500
O884        O  0.60019838  0.09489470  0.61860098    -0.83100
O885        O  0.56503262  0.13071178  0.60241510    -0.85700
C886        C  0.55538312  0.15233327  0.59710382     1.02000
O887        O  0.56961927  0.17074962  0.58916741    -0.78500
O888        O  0.59437156  0.18505373  0.63273515    -0.78700
C889        C  0.60600408  0.18076342  0.65353224     1.01900
O890        O  0.66368749  0.15505944  0.61332904    -0.86000
O891        O  0.64933556  0.10560760  0.61453339    -0.83100
C892        C  0.65019143  0.10143945  0.59043350     0.97500
O893        O  0.63247681  0.10932905  0.57600609    -0.83100
O894        O  0.59429474  0.13932423  0.55667427    -0.85700
C895        C  0.60903007  0.15630320  0.54734702     1.02000
O896        O  0.61913464  0.17284069  0.56185625    -0.78500
O897        O  0.64298060  0.19061664  0.60477580    -0.78700
C898        C  0.66326748  0.17714976  0.60352408     1.01900
Cr899      Cr  0.63568974  0.13784705  0.63164167     1.93700
Cr900      Cr  0.59901087  0.12024739  0.58962461     1.93200
Cr901      Cr  0.60708599  0.17775475  0.59782918     1.39100
O902        O  0.61388898  0.14547574  0.60650016    -1.23700
O903        O  0.37799593  0.33371042  0.83719682    -0.86000
O904        O  0.37523882  0.34848057  0.88643658    -0.83000
C905        C  0.39923861  0.34871036  0.89107856     0.97500
O906        O  0.41319831  0.36707505  0.88350685    -0.83100
O907        O  0.43156561  0.40703359  0.85450090    -0.85700
C908        C  0.44270059  0.39418223  0.83725304     1.02000
O909        O  0.42939045  0.38182661  0.82120889    -0.78500
O910        O  0.38880773  0.35457940  0.80205315    -0.78700
C911        C  0.38882508  0.33411916  0.81555374     1.01900
O912        O  0.33741385  0.36862956  0.82224996    -0.86000
O913        O  0.33733603  0.38730368  0.87076713    -0.83100
C914        C  0.34553277  0.39886113  0.89029800     0.97500
O915        O  0.36882894  0.39673553  0.89668129    -0.83100
O916        O  0.38433900  0.43269689  0.86167785    -0.85700
C917        C  0.39046905  0.44307955  0.84059116     1.02000
O918        O  0.39866462  0.42942648  0.82189287    -0.78500
O919        O  0.35771388  0.40176548  0.80570848    -0.78700
C920        C  0.33717251  0.38955549  0.80975010     1.01900
Cr921      Cr  0.35858086  0.36111155  0.85356799     1.93700
Cr922      Cr  0.39842165  0.39968701  0.87236924     1.93200
Cr923      Cr  0.39284446  0.39121809  0.81471947     1.39100
O924        O  0.38321269  0.38395526  0.84661266    -1.23700
O925        O  0.66578346  0.62106752  0.15402163    -0.86000
O926        O  0.65382322  0.62475570  0.10384581    -0.83000
C927        C  0.65464934  0.60092136  0.09866171     0.97500
O928        O  0.63643189  0.58619349  0.10510524    -0.83100
O929        O  0.59575164  0.56633057  0.13238447    -0.85700
C930        C  0.60811318  0.55592112  0.15051774     1.02000
O931        O  0.61775357  0.56966325  0.16798058    -0.78500
O932        O  0.64244532  0.61136582  0.18806592    -0.78700
C933        C  0.66375706  0.61112766  0.17600834     1.01900
O934        O  0.62984787  0.66089002  0.16724408    -0.86000
O935        O  0.61372966  0.66153163  0.11747401    -0.83100
C936        C  0.60475536  0.65373455  0.09642951     0.97500
O937        O  0.60588425  0.63006442  0.09080692    -0.83100
O938        O  0.56834792  0.61293734  0.12366660    -0.85700
C939        C  0.55710500  0.60731263  0.14449280     1.02000
O940        O  0.56992992  0.59889476  0.16357598    -0.78500
O941        O  0.59508334  0.64103141  0.18028880    -0.78700
C942        C  0.60777263  0.66145412  0.17737724     1.01900
Cr943      Cr  0.63915960  0.64041599  0.13614516     1.93700
Cr944      Cr  0.60260529  0.59992943  0.11481200     1.93200
Cr945      Cr  0.60708313  0.60601493  0.17300375     1.39100
O946        O  0.61635674  0.61539447  0.14151874    -1.23700
O947        O  0.38222900  0.66770658  0.14925916    -0.86000
O948        O  0.37621933  0.65385369  0.09973148    -0.83000
C949        C  0.39962131  0.65279803  0.09261063     0.97500
O950        O  0.41335726  0.63380052  0.09847328    -0.83100
O951        O  0.43496700  0.59698831  0.12831426    -0.85700
C952        C  0.44599577  0.61070732  0.14515714     1.02000
O953        O  0.43298607  0.62206794  0.16212980    -0.78500
O954        O  0.39168588  0.64609367  0.18402978    -0.78700
C955        C  0.39281505  0.66668176  0.17096075     1.01900
O956        O  0.34194108  0.63101450  0.16587318    -0.86000
O957        O  0.33866946  0.61469042  0.11674580    -0.83100
C958        C  0.34550048  0.60206706  0.09731737     0.97500
O959        O  0.36878794  0.60223964  0.09027018    -0.83100
O960        O  0.38784420  0.56777373  0.12550584    -0.85700
C961        C  0.39625393  0.55849622  0.14629263     1.02000
O962        O  0.40607674  0.57318483  0.16316398    -0.78500
O963        O  0.36357207  0.59785360  0.18002177    -0.78700
C964        C  0.34245463  0.60918488  0.17695535     1.01900
Cr965      Cr  0.36143655  0.64029941  0.13343394     1.93700
Cr966      Cr  0.40016218  0.60131992  0.11243357     1.93200
Cr967      Cr  0.39763455  0.61052134  0.17023710     1.39100
O968        O  0.38636914  0.61748344  0.13873029    -1.23700
O969        O  0.62103270  0.33478384  0.14740975    -0.86000
O970        O  0.62325810  0.35067931  0.09832125    -0.83000
C971        C  0.59920216  0.35109700  0.09391464     0.97500
O972        O  0.58569918  0.36955565  0.10186433    -0.83100
O973        O  0.56796101  0.40798714  0.13322835    -0.85700
C974        C  0.55772860  0.39468471  0.15090229     1.02000
O975        O  0.57155761  0.38176015  0.16590501    -0.78500
O976        O  0.61284729  0.35510258  0.18340913    -0.78700
C977        C  0.61141362  0.33493754  0.16960327     1.01900
O978        O  0.66262258  0.36977544  0.16219604    -0.86000
O979        O  0.66167236  0.38929614  0.11413463    -0.83100
C980        C  0.65351802  0.40065774  0.09449001     0.97500
O981        O  0.62990492  0.40000262  0.08896152    -0.83100
O982        O  0.61525100  0.43469289  0.12572901    -0.85700
C983        C  0.60956666  0.44439533  0.14724148     1.02000
O984        O  0.60134788  0.43002257  0.16544956    -0.78500
O985        O  0.64319339  0.40291462  0.17926125    -0.78700
C986        C  0.66350479  0.39082592  0.17445841     1.01900
Cr987      Cr  0.64061537  0.36266140  0.13119262     1.93700
Cr988      Cr  0.60078742  0.40186164  0.11411987     1.93200
Cr989      Cr  0.60794555  0.39180500  0.17144343     1.39100
O990        O  0.61645559  0.38534421  0.13909355    -1.23700
O991        O  0.17249312  0.34224262  0.36378539    -0.86000
O992        O  0.12246958  0.34152157  0.37919981    -0.83000
C993        C  0.10151879  0.34913168  0.38852342     0.97500
O994        O  0.09636890  0.37289928  0.38829033    -0.83100
O995        O  0.13089152  0.38914771  0.42495710    -0.85700
C996        C  0.15177149  0.39590716  0.43533448     1.02000
O997        O  0.16984000  0.40562589  0.42190309    -0.78500
O998        O  0.18717369  0.36374747  0.39690824    -0.78700
C999        C  0.18411082  0.34276229  0.38521527     1.01900
O1000       O  0.15914848  0.38256206  0.32701626    -0.86000
O1001       O  0.10929642  0.37928741  0.33931266    -0.83100
C1002       C  0.10377530  0.40311736  0.33943497     0.97500
O1003       O  0.10985610  0.41707001  0.35830155    -0.83100
O1004       O  0.13798324  0.43655587  0.39809543    -0.85700
C1005       C  0.15560608  0.44749814  0.38529482     1.02000
O1006       O  0.17178597  0.43406535  0.37336657    -0.78500
O1007       O  0.19326362  0.39263810  0.34944550    -0.78700
C1008       C  0.18098909  0.39276428  0.32841008     1.01900
Cr1009     Cr  0.14142855  0.36301989  0.35393364     1.93700
Cr1010     Cr  0.12056527  0.40282811  0.39139362     1.93200
Cr1011     Cr  0.17843013  0.39821897  0.38466262     1.39100
O1012       O  0.14696896  0.38789036  0.37661197    -1.23700
O1013       O  0.37152654  0.16397300  0.33178258    -0.86000
O1014       O  0.38769601  0.11515691  0.33172317    -0.83000
C1015       C  0.39817720  0.09476515  0.33897256     0.97500
O1016       O  0.39857478  0.08880080  0.36263827    -0.83100
O1017       O  0.43575519  0.12331362  0.37840987    -0.85700
C1018       C  0.44630687  0.14404179  0.38537292     1.02000
O1019       O  0.43252811  0.16272378  0.39312367    -0.78500
O1020       O  0.40636033  0.17808000  0.35087699    -0.78700
C1021       C  0.39320602  0.17513853  0.33081066     1.01900
O1022       O  0.33687262  0.15032766  0.37376924    -0.86000
O1023       O  0.34968261  0.10103875  0.37086654    -0.83100
C1024       C  0.34976539  0.09758520  0.39505739     0.97500
O1025       O  0.36951762  0.10270353  0.40794614    -0.83100
O1026       O  0.40907251  0.13147108  0.42575867    -0.85700
C1027       C  0.39658826  0.14963299  0.43602361     1.02000
O1028       O  0.38471377  0.16542377  0.42212950    -0.78500
O1029       O  0.35938294  0.18518011  0.38103018    -0.78700
C1030       C  0.33845301  0.17260596  0.38281960     1.01900
Cr1031     Cr  0.36305761  0.13310606  0.35355548     1.93700
Cr1032     Cr  0.40214341  0.11315205  0.39253081     1.93200
Cr1033     Cr  0.39507930  0.17086934  0.38603572     1.39100
O1034       O  0.38679409  0.13916244  0.37728280    -1.23700
O1035       O  0.34135251  0.37379179  0.15633828    -0.86000
O1036       O  0.34521084  0.39416674  0.10844576    -0.83000
C1037       C  0.35480621  0.40651993  0.08989153     0.97500
O1038       O  0.37871620  0.40546151  0.08589210    -0.83100
O1039       O  0.39197583  0.43916077  0.12446160    -0.85700
C1040       C  0.39685796  0.44778879  0.14660288     1.02000
O1041       O  0.40441792  0.43276252  0.16443165    -0.78500
O1042       O  0.36072059  0.40612746  0.17549778    -0.78700
C1043       C  0.34044657  0.39421274  0.16956592     1.01900
O1044       O  0.38280846  0.33846625  0.14325033    -0.86000
O1045       O  0.38386762  0.35564029  0.09482786    -0.83100
C1046       C  0.40817105  0.35546176  0.09243996     0.97500
O1047       O  0.42130539  0.37413641  0.10061824    -0.83100
O1048       O  0.43818930  0.41136659  0.13350050    -0.85700
C1049       C  0.44726762  0.39655181  0.15048948     1.02000
O1050       O  0.43230755  0.38370506  0.16462847    -0.78500
O1051       O  0.38912256  0.35811979  0.17993859    -0.78700
C1052       C  0.39101573  0.33819357  0.16596947     1.01900
Cr1053     Cr  0.36481475  0.36705460  0.12650219     1.93700
Cr1054     Cr  0.40630842  0.40636106  0.11259867     1.93200
Cr1055     Cr  0.39605352  0.39467874  0.16901061     1.39100
O1056       O  0.38888724  0.38935744  0.13619500    -1.23700
C1057       C  0.51577514  0.37258021  0.15944638    -0.27000
C1058       C  0.52957990  0.39530784  0.15410681    -0.15000
C1059       C  0.51619499  0.41847125  0.15019060     0.35600
C1060       C  0.48936087  0.41837516  0.14997459    -0.26400
C1061       C  0.47539144  0.39556665  0.15394504    -0.15700
C1062       C  0.48863299  0.37243402  0.15930447     0.36700
N1063       N  0.47463139  0.34888710  0.16375368    -0.89900
H1064       H  0.52614552  0.35478597  0.16261715     0.17800
H1065       H  0.47935697  0.43631090  0.14640099     0.17800
N1066       N  0.52985768  0.44224913  0.14657735    -0.88900
H1067       H  0.48731459  0.33366390  0.16708481     0.35200
H1068       H  0.46457536  0.34436275  0.14692940     0.40300
H1069       H  0.52411792  0.45500052  0.16103775     0.39900
H1070       H  0.52442718  0.45004103  0.12882472     0.34800
C1071       C  0.37419807  0.51651332  0.14032070    -0.27000
C1072       C  0.39529930  0.53024810  0.15014815    -0.15000
C1073       C  0.41570712  0.51661236  0.16167056     0.35600
C1074       C  0.41520952  0.48949785  0.16205088    -0.26400
C1075       C  0.39478187  0.47584348  0.15075368    -0.15700
C1076       C  0.37369508  0.48948502  0.14054299     0.36700
N1077       N  0.35206464  0.47574194  0.12999591    -0.89900
H1078       H  0.35820746  0.52694940  0.13202671     0.17800
H1079       H  0.43152914  0.47912982  0.16978625     0.17800
N1080       N  0.43762812  0.53012601  0.17158284    -0.88900
H1081       H  0.33824095  0.48857906  0.12305103     0.35200
H1082       H  0.34339563  0.46543841  0.14502676     0.40300
H1083       H  0.45393297  0.52383888  0.16160123     0.39900
H1084       H  0.43977949  0.52505902  0.19095229     0.34800
C1085       C  0.60968669  0.51339336  0.17382412    -0.27000
C1086       C  0.61078680  0.52754442  0.15071135    -0.15000
C1087       C  0.61358927  0.51430526  0.12726489     0.35600
C1088       C  0.61360896  0.48745649  0.12698262    -0.26400
C1089       C  0.61111591  0.47295758  0.14976447    -0.15700
C1090       C  0.60991178  0.48612893  0.17361890     0.36700
N1091       N  0.60894058  0.47194898  0.19740401    -0.89900
H1092       H  0.60805529  0.52357809  0.19195018     0.17800
H1093       H  0.61519352  0.47797827  0.10847057     0.17800
N1094       N  0.61671605  0.52811933  0.10351639    -0.88900
H1095       H  0.60787753  0.48454497  0.21308617     0.35200
H1096       H  0.62633789  0.46209773  0.19921323     0.40300
H1097       H  0.60188472  0.52261639  0.09108354     0.39900
H1098       H  0.63418531  0.52260578  0.09520152     0.34800
C1099       C  0.51503846  0.61305757  0.12250286    -0.27000
C1100       C  0.52862569  0.60965656  0.14568563    -0.15000
C1101       C  0.51467268  0.60859970  0.16907732     0.35600
C1102       C  0.48766399  0.61007186  0.16871783    -0.26400
C1103       C  0.47429372  0.61219252  0.14537020    -0.15700
C1104       C  0.48816471  0.61421229  0.12216470     0.36700
N1105       N  0.47500592  0.61764170  0.09816888    -0.89900
H1106       H  0.52522734  0.61437260  0.10430986     0.17800
H1107       H  0.47708825  0.60867851  0.18669105     0.17800
N1108       N  0.52771043  0.60601559  0.19321190    -0.88900
H1109       H  0.48001648  0.60244967  0.08599648     0.35200
H1110       H  0.48159075  0.63477789  0.08975735     0.40300
H1111       H  0.52091431  0.58931329  0.20226406     0.39900
H1112       H  0.52279170  0.62175827  0.20473469     0.34800
C1113       C  0.14040446  0.37316032  0.47546510    -0.27000
C1114       C  0.15421308  0.39307968  0.46344684    -0.15000
C1115       C  0.16823090  0.41064727  0.47863609     0.35600
C1116       C  0.16670380  0.40900191  0.50557027    -0.26400
C1117       C  0.15126101  0.39019064  0.51759890    -0.15700
C1118       C  0.13875413  0.37151643  0.50217857     0.36700
N1119       N  0.12406223  0.35075425  0.51290785    -0.89900
H1120       H  0.13012601  0.35907394  0.46396119     0.17800
H1121       H  0.17675302  0.42324758  0.51705749     0.17800
N1122       N  0.18305644  0.43083846  0.46692684    -0.88900
H1123       H  0.10794765  0.35854077  0.52183938     0.35200
H1124       H  0.13529537  0.34110521  0.52650910     0.40300
H1125       H  0.20209711  0.42898583  0.47309901     0.39900
H1126       H  0.17611740  0.44844772  0.47371409     0.34800
C1127       C  0.14715524  0.51741026  0.40405062    -0.27000
C1128       C  0.15766151  0.53039003  0.38272514    -0.15000
C1129       C  0.16860873  0.51595345  0.36242263     0.35600
C1130       C  0.16853286  0.48883012  0.36397374    -0.26400
C1131       C  0.15733137  0.47597337  0.38511166    -0.15700
C1132       C  0.14692853  0.49053777  0.40556646     0.36700
N1133       N  0.13626585  0.47805464  0.42796915    -0.89900
H1134       H  0.13906313  0.52833204  0.41986180     0.17800
H1135       H  0.17645304  0.47768148  0.34822770     0.17800
N1136       N  0.17909166  0.52870225  0.34010812    -0.88900
H1137       H  0.12901794  0.49155460  0.44099239     0.35200
H1138       H  0.15131181  0.46863052  0.43735749     0.40300
H1139       H  0.16393489  0.53787888  0.33064156     0.39900
H1140       H  0.18654515  0.51525366  0.32713101     0.34800
C1141       C  0.41424730  0.14310091  0.50627552    -0.27000
C1142       C  0.39361687  0.15552463  0.51842285    -0.15000
C1143       C  0.37448817  0.16746671  0.50328957     0.35600
C1144       C  0.37608911  0.16581014  0.47628578    -0.26400
C1145       C  0.39636239  0.15252436  0.46428448    -0.15700
C1146       C  0.41591877  0.14169231  0.47953135     0.36700
N1147       N  0.43783631  0.12960709  0.46799926    -0.89900
H1148       H  0.42945729  0.13448032  0.51761148     0.17800
H1149       H  0.36106981  0.17428167  0.46461693     0.17800
N1150       N  0.35337404  0.18073141  0.51523280    -0.88900
H1151       H  0.43870595  0.11061638  0.47469025     0.35200
H1152       H  0.45436884  0.13926780  0.47424495     0.40300
H1153       H  0.34231668  0.16706499  0.52517668     0.39900
H1154       H  0.34135103  0.18883871  0.50131048     0.34800
C1155       C  0.48578087  0.14118413  0.61635024    -0.27000
C1156       C  0.47257353  0.15546759  0.59760818    -0.15000
C1157       C  0.48686214  0.17081670  0.58004709     0.35600
C1158       C  0.51397373  0.17077674  0.58117014    -0.26400
C1159       C  0.52706369  0.15529984  0.59901714    -0.15700
C1160       C  0.51276024  0.14104929  0.61736943     0.36700
N1161       N  0.52571107  0.12635576  0.63693459    -0.89900
H1162       H  0.47497717  0.12989181  0.63026892     0.17800
H1163       H  0.52492850  0.18180959  0.56717027     0.17800
N1164       N  0.47396774  0.18554446  0.56049925    -0.88900
H1165       H  0.51244706  0.11677186  0.64876209     0.35200
H1166       H  0.53563582  0.13934432  0.64869900     0.40300
H1167       H  0.46510995  0.17251435  0.54795292     0.39900
H1168       H  0.48724954  0.19600981  0.54946675     0.34800
C1169       C  0.14479474  0.62856116  0.50239104    -0.27000
C1170       C  0.15811149  0.60887613  0.51523762    -0.15000
C1171       C  0.17365784  0.59208887  0.50056283     0.35600
C1172       C  0.17366427  0.59381815  0.47340370    -0.26400
C1173       C  0.15863696  0.61229455  0.46057998    -0.15700
C1174       C  0.14524918  0.63072591  0.47540001     0.36700
N1175       N  0.13192770  0.65150554  0.46294593    -0.89900
H1176       H  0.13366093  0.64224356  0.51348522     0.17800
H1177       H  0.18446732  0.57985964  0.46233338     0.17800
N1178       N  0.18857196  0.57256841  0.51298664    -0.88900
H1179       H  0.14568352  0.66286868  0.45348060     0.35200
H1180       H  0.12300554  0.66337167  0.47650683     0.40300
H1181       H  0.20783839  0.57530347  0.50776820     0.39900
H1182       H  0.18263476  0.55465597  0.50594008     0.34800
C1183       C  0.14231198  0.51269157  0.57428885    -0.27000
C1184       C  0.15378368  0.52593929  0.59482491    -0.15000
C1185       C  0.16528841  0.51172734  0.61493925     0.35600
C1186       C  0.16471870  0.48467516  0.61429744    -0.26400
C1187       C  0.15263024  0.47148646  0.59401990    -0.15700
C1188       C  0.14169482  0.48578348  0.57363383     0.36700
N1189       N  0.13020360  0.47313009  0.55196894    -0.89900
H1190       H  0.13379664  0.52326259  0.55844704     0.17800
H1191       H  0.17316053  0.47398977  0.63009989     0.17800
N1192       N  0.17685106  0.52458635  0.63642686    -0.88900
H1193       H  0.13989584  0.47912105  0.53530962     0.35200
H1194       H  0.11108404  0.47915984  0.55058479     0.40300
H1195       H  0.19604673  0.51876581  0.63763290     0.39900
H1196       H  0.16741295  0.51852107  0.65320020     0.34800
C1197       C  0.61851094  0.13279441  0.47941003    -0.27000
C1198       C  0.61454067  0.15533916  0.46495550    -0.15000
C1199       C  0.61222148  0.17915432  0.47824548     0.35600
C1200       C  0.61210493  0.17944446  0.50527786    -0.26400
C1201       C  0.61370106  0.15646929  0.51936036    -0.15700
C1202       C  0.61795574  0.13315594  0.50629812     0.36700
N1203       N  0.62161328  0.10967226  0.52033430    -0.89900
H1204       H  0.62111829  0.11442870  0.46988973     0.17800
H1205       H  0.60940740  0.19754526  0.51527516     0.17800
N1206       N  0.60980014  0.20327795  0.46506112    -0.88900
H1207       H  0.63953853  0.10214187  0.51523780     0.35200
H1208       H  0.60743740  0.09654118  0.51459483     0.40300
H1209       H  0.59251328  0.20340705  0.45485022     0.39900
H1210       H  0.62524500  0.20533671  0.45225248     0.34800
C1211       C  0.51788972  0.12770424  0.38592379    -0.27000
C1212       C  0.52912677  0.15219100  0.38795359    -0.15000
C1213       C  0.51298658  0.17398945  0.38935607     0.35600
C1214       C  0.48621734  0.17081154  0.38816765    -0.26400
C1215       C  0.47488677  0.14626275  0.38566357    -0.15700
C1216       C  0.49125672  0.12442336  0.38466787     0.36700
N1217       N  0.48168912  0.09855465  0.38301111    -0.89900
H1218       H  0.53000986  0.11077325  0.38509091     0.17800
H1219       H  0.47420210  0.18777499  0.38936667     0.17800
N1220       N  0.52304387  0.19939702  0.39317811    -0.88900
H1221       H  0.47169523  0.09631836  0.36564381     0.35200
H1222       H  0.46945200  0.09499234  0.39857048     0.40300
H1223       H  0.53449358  0.20433187  0.37718068     0.39900
H1224       H  0.53447005  0.19935371  0.40955835     0.34800
C1225       C  0.51252597  0.41161688  0.85001698    -0.27000
C1226       C  0.52575063  0.39177148  0.83744774    -0.15000
C1227       C  0.51150457  0.37312910  0.82366930     0.35600
C1228       C  0.48443816  0.37451098  0.82311785    -0.26400
C1229       C  0.47126981  0.39416533  0.83622969    -0.15700
C1230       C  0.48571459  0.41308499  0.84946653     0.36700
N1231       N  0.47334359  0.43409520  0.86231515    -0.89900
H1232       H  0.52305398  0.42638582  0.86036542     0.17800
H1233       H  0.47370977  0.35976241  0.81295526     0.17800
N1234       N  0.52428360  0.35240157  0.81083769    -0.88900
H1235       H  0.48033155  0.45131528  0.85442220     0.35200
H1236       H  0.47851338  0.43354983  0.88175886     0.40300
H1237       H  0.51921603  0.35300784  0.79135717     0.39900
H1238       H  0.51742416  0.33506196  0.81853520     0.34800
C1239       C  0.51845771  0.87017845  0.39344196    -0.27000
C1240       C  0.53119111  0.84887534  0.38307940    -0.15000
C1241       C  0.51665810  0.82834898  0.37282832     0.35600
C1242       C  0.48952178  0.82931162  0.37381273    -0.26400
C1243       C  0.47670233  0.85059570  0.38459502    -0.15700
C1244       C  0.49159358  0.87132325  0.39424225     0.36700
N1245       N  0.47965334  0.89391488  0.40453571    -0.89900
H1246       H  0.52950669  0.88619632  0.40106925     0.17800
H1247       H  0.47839683  0.81348017  0.36596896     0.17800
N1248       N  0.52945490  0.80711647  0.36071856    -0.88900
H1249       H  0.48591700  0.90981166  0.39378449     0.35200
H1250       H  0.48593646  0.89630934  0.42350636     0.40300
H1251       H  0.53899412  0.81440595  0.34448134     0.39900
H1252       H  0.51602032  0.79369916  0.35397541     0.34800
C1253       C  0.62426910  0.51198095  0.85081651    -0.27000
C1254       C  0.60423408  0.52464360  0.83792931    -0.15000
C1255       C  0.58536020  0.51008640  0.82482424     0.35600
C1256       C  0.58646330  0.48308579  0.82577616    -0.26400
C1257       C  0.60575737  0.47054453  0.83983696    -0.15700
C1258       C  0.62523811  0.48511675  0.85179976     0.36700
N1259       N  0.64614173  0.47270285  0.86476425    -0.89900
H1260       H  0.63915207  0.52301787  0.86045872     0.17800
H1261       H  0.57154435  0.47181535  0.81648929     0.17800
N1262       N  0.56464284  0.52263946  0.81152264    -0.88900
H1263       H  0.64635034  0.47896727  0.88389665     0.35200
H1264       H  0.66332982  0.47866310  0.85604878     0.40300
H1265       H  0.55342742  0.53207758  0.82531796     0.39900
H1266       H  0.55262422  0.50909032  0.80271763     0.34800
C1267       C  0.38587903  0.51263826  0.81675148    -0.27000
C1268       C  0.38855184  0.52616268  0.84009911    -0.15000
C1269       C  0.39113879  0.51194405  0.86329312     0.35600
C1270       C  0.39146300  0.48518322  0.86254482    -0.26400
C1271       C  0.38953200  0.47159494  0.83926127    -0.15700
C1272       C  0.38644120  0.48546201  0.81607067     0.36700
N1273       N  0.38362078  0.47202475  0.79206336    -0.89900
H1274       H  0.38372576  0.52329117  0.79892431     0.17800
H1275       H  0.39371253  0.47491573  0.88060406     0.17800
N1276       N  0.39306932  0.52387917  0.88810907    -0.88900
H1277       H  0.38173378  0.48509015  0.77682420     0.35200
H1278       H  0.36638660  0.46161448  0.79295624     0.40300
H1279       H  0.37743305  0.53621390  0.89069319     0.39900
H1280       H  0.41031824  0.53422046  0.88922419     0.34800
C1281       C  0.48148982  0.60481176  0.81842486    -0.27000
C1282       C  0.46942931  0.60567400  0.84268626    -0.15000
C1283       C  0.48499929  0.60674137  0.86508951     0.35600
C1284       C  0.51174069  0.60650541  0.86266580    -0.26400
C1285       C  0.52374483  0.60542813  0.83846656    -0.15700
C1286       C  0.50832386  0.60468919  0.81608013     0.36700
N1287       N  0.51922987  0.60272457  0.79082090    -0.89900
H1288       H  0.46998708  0.60405913  0.80104592     0.17800
H1289       H  0.52330814  0.60707865  0.88002098     0.17800
N1290       N  0.47447340  0.60727736  0.89062779    -0.88900
H1291       H  0.53101097  0.58646190  0.79021432     0.35200
H1292       H  0.53043984  0.61908329  0.78735862     0.40300
H1293       H  0.46241512  0.59127856  0.89315099     0.39900
H1294       H  0.46398306  0.62421878  0.89303300     0.34800
C1295       C  0.87165024  0.51181128  0.37767630    -0.27000
C1296       C  0.84919548  0.52647757  0.38095219    -0.15000
C1297       C  0.82512728  0.51344035  0.38245970     0.35600
C1298       C  0.82435244  0.48646694  0.38162351    -0.26400
C1299       C  0.84703712  0.47206041  0.37970844    -0.15700
C1300       C  0.87076853  0.48491781  0.37710737     0.36700
N1301       N  0.89406916  0.47070154  0.37349434    -0.89900
H1302       H  0.89025533  0.52117287  0.37598528     0.17800
H1303       H  0.80594601  0.47669282  0.38327508     0.17800
N1304       N  0.80117460  0.52682132  0.38464098    -0.88900
H1305       H  0.90676823  0.47560793  0.38831780     0.35200
H1306       H  0.90233562  0.47647058  0.35602536     0.40300
H1307       H  0.79963301  0.53977221  0.36930870     0.39900
H1308       H  0.80083639  0.53686536  0.40208723     0.34800
C1309       C  0.87410627  0.60842973  0.50423840    -0.27000
C1310       C  0.85144080  0.60466105  0.51862622    -0.15000
C1311       C  0.82778858  0.60172742  0.50530915     0.35600
C1312       C  0.82754286  0.60272977  0.47812709    -0.26400
C1313       C  0.85042588  0.60572966  0.46403873    -0.15700
C1314       C  0.87382310  0.60880961  0.47731705     0.36700
N1315       N  0.89744634  0.61265610  0.46350706    -0.89900
H1316       H  0.89243154  0.61085926  0.51387680     0.17800
H1317       H  0.80956244  0.60025138  0.46787333     0.17800
N1318       N  0.80412459  0.59791780  0.51921482    -0.88900
H1319       H  0.91003950  0.59784235  0.46854818     0.35200
H1320       H  0.90561841  0.63004562  0.46959400     0.40300
H1321       H  0.80465392  0.57943609  0.52722940     0.39900
H1322       H  0.78845898  0.59799794  0.50661130     0.34800
C1323       C  0.40012864  0.87063893  0.50605454    -0.27000
C1324       C  0.39618432  0.84664146  0.51780954    -0.15000
C1325       C  0.39293646  0.82455207  0.50235351     0.35600
C1326       C  0.39332599  0.82698781  0.47541272    -0.26400
C1327       C  0.39685378  0.85116085  0.46373858    -0.15700
C1328       C  0.40060882  0.87309911  0.47932107     0.36700
N1329       N  0.40561226  0.89789066  0.46813662    -0.89900
H1330       H  0.40286186  0.88775294  0.51768678     0.17800
H1331       H  0.39069317  0.80997286  0.46362746     0.17800
N1332       N  0.38992002  0.79961825  0.51384693    -0.88900
H1333       H  0.42342510  0.90444006  0.47487130     0.35200
H1334       H  0.39146365  0.91060909  0.47460334     0.40300
H1335       H  0.40481607  0.78788818  0.50718105     0.39900
H1336       H  0.37250543  0.79177187  0.50746600     0.34800
C1337       C  0.58563167  0.85320900  0.50240880    -0.27000
C1338       C  0.60712922  0.84515364  0.51657238    -0.15000
C1339       C  0.62920465  0.83659939  0.50322066     0.35600
C1340       C  0.62936813  0.83634627  0.47609192    -0.26400
C1341       C  0.60795045  0.84487679  0.46203503    -0.15700
C1342       C  0.58580318  0.85302815  0.47543666     0.36700
N1343       N  0.56317707  0.86067554  0.46170513    -0.89900
H1344       H  0.56841619  0.85956057  0.51231207     0.17800
H1345       H  0.64656274  0.83020215  0.46601270     0.17800
N1346       N  0.65178479  0.82906626  0.51706398    -0.88900
H1347       H  0.55869955  0.87953712  0.46705296     0.35200
H1348       H  0.54797551  0.84871261  0.46746999     0.40300
H1349       H  0.66700759  0.84096979  0.51123257     0.39900
H1350       H  0.65626758  0.81015885  0.51188356     0.34800
C1351       C  0.51452993  0.84763647  0.62036478    -0.27000
C1352       C  0.52748282  0.84008839  0.59794147    -0.15000
C1353       C  0.51348807  0.83046866  0.57678282     0.35600
C1354       C  0.48649000  0.83045372  0.57786408    -0.26400
C1355       C  0.47351588  0.84018042  0.59949784    -0.15700
C1356       C  0.48775004  0.84765212  0.62142765     0.36700
N1357       N  0.47561055  0.85521257  0.64502046    -0.89900
H1358       H  0.52533674  0.85433720  0.63692037     0.17800
H1359       H  0.47556815  0.82427030  0.56120114     0.17800
N1360       N  0.52662278  0.82206471  0.55389648    -0.88900
H1361       H  0.46278971  0.84066565  0.65067320     0.35200
H1362       H  0.46543246  0.87221286  0.64191536     0.40300
H1363       H  0.53574685  0.83810408  0.54575266     0.39900
H1364       H  0.51343161  0.81540027  0.54021190     0.34800
C1365       C  0.86387027  0.37401477  0.50191577    -0.27000
C1366       C  0.84510961  0.38793717  0.51543678    -0.15000
C1367       C  0.82576352  0.40083560  0.50134418     0.35600
C1368       C  0.82720249  0.40147593  0.47423934    -0.26400
C1369       C  0.84712841  0.38901954  0.46077335    -0.15700
C1370       C  0.86507754  0.37423596  0.47507940     0.36700
N1371       N  0.88485910  0.35915795  0.46321659    -0.89900
H1372       H  0.87831856  0.36318560  0.51231461     0.17800
H1373       H  0.81283722  0.41217568  0.46363217     0.17800
N1374       N  0.80514782  0.41380045  0.51442622    -0.88900
H1375       H  0.87641246  0.34625032  0.45027343     0.35200
H1376       H  0.89772422  0.37133657  0.45357363     0.40300
H1377       H  0.79378367  0.39967045  0.52329578     0.39900
H1378       H  0.79319964  0.42316623  0.50122496     0.34800
C1379       C  0.83251989  0.48529527  0.61297417    -0.27000
C1380       C  0.84504556  0.47252727  0.59265327    -0.15000
C1381       C  0.85893876  0.48726765  0.57426030     0.35600
C1382       C  0.86090796  0.51399711  0.57728223    -0.26400
C1383       C  0.84873222  0.52672528  0.59772119    -0.15700
C1384       C  0.83419789  0.51220593  0.61561879     0.36700
N1385       N  0.82167410  0.52455989  0.63684883    -0.89900
H1386       H  0.82188389  0.47432705  0.62726364     0.17800
H1387       H  0.87164980  0.52504865  0.56313075     0.17800
N1388       N  0.87090049  0.47517348  0.55240260    -0.88900
H1389       H  0.82882445  0.51665400  0.65391896     0.35200
H1390       H  0.80201161  0.52032882  0.63585912     0.40300
H1391       H  0.88081102  0.48869017  0.54112310     0.39900
H1392       H  0.85622437  0.46770938  0.54083644     0.34800
C1393       C  0.06695300  0.28623284  0.56023069    -0.27000
C1394       C  0.05485645  0.29810938  0.53917022    -0.15000
C1395       C  0.05892481  0.32455963  0.53450362     0.35600
C1396       C  0.07183772  0.33927457  0.55279530    -0.26400
C1397       C  0.08345426  0.32785101  0.57424093    -0.15700
C1398       C  0.08168459  0.30089491  0.57770932     0.36700
N1399       N  0.09395986  0.28871769  0.59928251    -0.89900
H1400       H  0.06403706  0.26583165  0.56364241     0.17800
H1401       H  0.07349762  0.35987298  0.54979620     0.17800
N1402       N  0.04980435  0.33639228  0.51115668    -0.88900
H1403       H  0.09089512  0.26881129  0.59884807     0.35200
H1404       H  0.08508493  0.29550891  0.61603340     0.40300
H1405       H  0.05968204  0.32793604  0.49580836     0.39900
H1406       H  0.05446353  0.35602253  0.51071890     0.34800
C1407       C  0.05727725  0.33961741  0.40371373    -0.27000
C1408       C  0.08237940  0.33073484  0.39927542    -0.15000
C1409       C  0.08871705  0.30527348  0.40661612     0.35600
C1410       C  0.07009889  0.28962631  0.41873347    -0.26400
C1411       C  0.04545217  0.29912171  0.42388923    -0.15700
C1412       C  0.03902424  0.32422308  0.41620349     0.36700
N1413       N  0.01422103  0.33460078  0.42212717    -0.89900
H1414       H  0.05188383  0.35900979  0.39825168     0.17800
H1415       H  0.07539175  0.27064961  0.42551110     0.17800
N1416       N  0.11424595  0.29563666  0.40306562    -0.88900
H1417       H  0.00594753  0.34092378  0.40490917     0.35200
H1418       H  0.01687172  0.35069991  0.43390960     0.40300
H1419       H  0.11300842  0.27884294  0.39205237     0.39900
H1420       H  0.12161132  0.29066175  0.42112984     0.34800
C1421       C  0.89793720  0.30155557  0.40911197    -0.27000
C1422       C  0.90836948  0.32199935  0.39443186    -0.15000
C1423       C  0.93525056  0.32455423  0.39247483     0.35600
C1424       C  0.95107961  0.30804213  0.40643561    -0.26400
C1425       C  0.94083665  0.28942719  0.42318325    -0.15700
C1426       C  0.91401167  0.28535591  0.42390095     0.36700
N1427       N  0.90320181  0.26583574  0.44039944    -0.89900
H1428       H  0.87722996  0.29932005  0.41040640     0.17800
H1429       H  0.97169914  0.31061828  0.40516338     0.17800
N1430       N  0.94663102  0.34428395  0.37675413    -0.88900
H1431       H  0.88316270  0.26535421  0.43859647     0.35200
H1432       H  0.90712462  0.27100927  0.45945130     0.40300
H1433       H  0.95803736  0.35595763  0.38856271     0.39900
H1434       H  0.95866764  0.33546963  0.36326300     0.34800
C1435       C  0.95958261  0.31666659  0.56174377    -0.27000
C1436       C  0.94840179  0.29698947  0.54705456    -0.15000
C1437       C  0.92174127  0.29277601  0.54817496     0.35600
C1438       C  0.90643919  0.30857868  0.56381207    -0.26400
C1439       C  0.91739857  0.32914062  0.57762795    -0.15700
C1440       C  0.94431759  0.33300633  0.57688359     0.36700
N1441       N  0.95595705  0.35374316  0.59109815    -0.89900
H1442       H  0.98016619  0.31996795  0.56049631     0.17800
H1443       H  0.88579028  0.30561208  0.56405199     0.17800
N1444       N  0.91018464  0.27281139  0.53305522    -0.88900
H1445       H  0.97587707  0.35409167  0.58819980     0.35200
H1446       H  0.95297980  0.35005937  0.61068775     0.40300
H1447       H  0.89643429  0.28118930  0.52104453     0.39900
H1448       H  0.90068965  0.26014759  0.54559102     0.34800
C1449       C  0.07827055  0.20450979  0.50626427    -0.27000
C1450       C  0.06602154  0.20746257  0.48226630    -0.15000
C1451       C  0.08148198  0.20683532  0.45976585     0.35600
C1452       C  0.10834958  0.20440054  0.46170137    -0.26400
C1453       C  0.12067845  0.20227403  0.48567621    -0.15700
C1454       C  0.10524125  0.20196294  0.50816631     0.36700
N1455       N  0.11682357  0.19999733  0.53310014    -0.89900
H1456       H  0.06701679  0.20529151  0.52383851     0.17800
H1457       H  0.11964096  0.20429992  0.44412466     0.17800
N1458       N  0.07009909  0.20878492  0.43473025    -0.88900
H1459       H  0.10912023  0.18380426  0.54233105     0.35200
H1460       H  0.11163326  0.21626003  0.54376106     0.40300
H1461       H  0.07489000  0.19222759  0.42435875     0.39900
H1462       H  0.07833283  0.22457535  0.42525711     0.34800
C1463       C  0.21509640  0.29114581  0.55557158    -0.27000
C1464       C  0.19670943  0.27125798  0.55275942    -0.15000
C1465       C  0.17396722  0.27237834  0.56794713     0.35600
C1466       C  0.16985555  0.29336125  0.58439120    -0.26400
C1467       C  0.18755498  0.31377446  0.58586130    -0.15700
C1468       C  0.21069826  0.31234962  0.57179395     0.36700
N1469       N  0.22941509  0.33273893  0.57368485    -0.89900
H1470       H  0.23284440  0.29055872  0.54461339     0.17800
H1471       H  0.15185506  0.29445976  0.59490408     0.17800
N1472       N  0.15428809  0.25303045  0.56674520    -0.88900
H1473       H  0.24538801  0.32888346  0.56206145     0.35200
H1474       H  0.23601884  0.33310060  0.59270214     0.40300
H1475       H  0.16224119  0.23524955  0.57178850     0.39900
H1476       H  0.14713786  0.25223987  0.54797323     0.34800
C1477       C  0.18969426  0.27260406  0.40652715    -0.27000
C1478       C  0.20138278  0.27569387  0.43077698    -0.15000
C1479       C  0.21027004  0.30043834  0.43790912     0.35600
C1480       C  0.20611327  0.32144000  0.42165550    -0.26400
C1481       C  0.19287269  0.31881622  0.39823707    -0.15700
C1482       C  0.18533154  0.29390382  0.39025678     0.36700
N1483       N  0.17279193  0.29012009  0.36601110    -0.89900
H1484       H  0.18329147  0.25370264  0.40039379     0.17800
H1485       H  0.21256501  0.34022413  0.42810975     0.17800
N1486       N  0.22345782  0.30459891  0.46178368    -0.88900
H1487       H  0.18387775  0.27733293  0.35516174     0.35200
H1488       H  0.15495412  0.28140766  0.36944772     0.40300
H1489       H  0.21306098  0.31808829  0.47250681     0.39900
H1490       H  0.24155093  0.31246745  0.45769798     0.34800
C1491       C  0.29211354  0.16934559  0.39385327    -0.27000
C1492       C  0.31562103  0.18266312  0.39659938    -0.15000
C1493       C  0.31746047  0.20229838  0.41519606     0.35600
C1494       C  0.29609076  0.20794838  0.43074846    -0.26400
C1495       C  0.27288681  0.19400592  0.42851726    -0.15700
C1496       C  0.27097235  0.17462706  0.40966941     0.36700
N1497       N  0.24765100  0.16019524  0.40640407    -0.89900
H1498       H  0.29022739  0.15406136  0.37977929     0.17800
H1499       H  0.29797559  0.22289920  0.44516952     0.17800
N1500       N  0.34117775  0.21586553  0.41913764    -0.88900
H1501       H  0.25185083  0.14068881  0.40905362     0.35200
H1502       H  0.24138229  0.16269680  0.38743915     0.40300
H1503       H  0.34682478  0.21310946  0.43826426     0.39900
H1504       H  0.33775444  0.23550871  0.41643587     0.34800
C1505       C  0.29716454  0.21500479  0.54728536    -0.27000
C1506       C  0.27522203  0.19906239  0.54826206    -0.15000
C1507       C  0.27330842  0.18018298  0.56757521     0.35600
C1508       C  0.29315882  0.17739552  0.58542805    -0.26400
C1509       C  0.31556933  0.19271984  0.58422481    -0.15700
C1510       C  0.31729017  0.21207134  0.56512161     0.36700
N1511       N  0.33947976  0.22845341  0.56339338    -0.89900
H1512       H  0.29865646  0.22991792  0.53271093     0.17800
H1513       H  0.29133222  0.16221216  0.59967296     0.17800
N1514       N  0.25166854  0.16300721  0.56851286    -0.88900
H1515       H  0.33337606  0.24753608  0.56517242     0.35200
H1516       H  0.34757777  0.22627264  0.54508100     0.40300
H1517       H  0.24297177  0.16477398  0.58659674     0.39900
H1518       H  0.25846248  0.14416172  0.56672452     0.34800
C1519       C  0.89225097  0.19846450  0.51385084    -0.27000
C1520       C  0.87959515  0.19688763  0.49003178    -0.15000
C1521       C  0.89479123  0.19502487  0.46740230     0.35600
C1522       C  0.92169111  0.19739815  0.46889420    -0.26400
C1523       C  0.93418997  0.20187633  0.49249459    -0.15700
C1524       C  0.91904658  0.20110861  0.51541430     0.36700
N1525       N  0.93000065  0.20334693  0.54064466    -0.89900
H1526       H  0.88112701  0.19894192  0.53153766     0.17800
H1527       H  0.93269435  0.19727408  0.45114313     0.17800
N1528       N  0.88359335  0.19058224  0.44261341    -0.88900
H1529       H  0.93696604  0.22203736  0.54337033     0.35200
H1530       H  0.94496598  0.19007865  0.54244034     0.40300
H1531       H  0.87218667  0.20633933  0.43766826     0.39900
H1532       H  0.87208370  0.17404358  0.44365971     0.34800
C1533       C  0.72845618  0.17687878  0.57062371    -0.27000
C1534       C  0.72496103  0.19539791  0.55131165    -0.15000
C1535       C  0.70213083  0.21011188  0.55109220     0.35600
C1536       C  0.68284438  0.20508025  0.56954423    -0.26400
C1537       C  0.68594107  0.18577755  0.58829045    -0.15700
C1538       C  0.70934235  0.17192805  0.58899203     0.36700
N1539       N  0.71374587  0.15243000  0.60804907    -0.89900
H1540       H  0.74607483  0.16579140  0.57128314     0.17800
H1541       H  0.66495858  0.21568264  0.56866097     0.17800
N1542       N  0.69863877  0.23017393  0.53230738    -0.88900
H1543       H  0.73037060  0.15733628  0.61826677     0.35200
H1544       H  0.71710593  0.13501109  0.59854565     0.40300
H1545       H  0.71243707  0.24443267  0.53592176     0.39900
H1546       H  0.68068292  0.23889107  0.53460151     0.34800
C1547       C  0.70742859  0.17584403  0.39183361    -0.27000
C1548       C  0.68656721  0.19294962  0.39319127    -0.15000
C1549       C  0.68809485  0.21427103  0.40983369     0.35600
C1550       C  0.70934762  0.21691175  0.42622482    -0.26400
C1551       C  0.72947548  0.19877630  0.42648080    -0.15700
C1552       C  0.72895946  0.17857962  0.40819256     0.36700
N1553       N  0.74981494  0.16057477  0.40665258    -0.89900
H1554       H  0.70627034  0.15941025  0.37905369     0.17800
H1555       H  0.70970412  0.23303281  0.43942850     0.17800
N1556       N  0.66757022  0.23275612  0.41055655    -0.88900
H1557       H  0.76600701  0.17064550  0.40017674     0.35200
H1558       H  0.74596616  0.14641763  0.39280593     0.40300
H1559       H  0.66687780  0.24170433  0.39259635     0.39900
H1560       H  0.67147999  0.24726010  0.42407766     0.34800
C1561       C  0.80124150  0.27193960  0.40852991    -0.27000
C1562       C  0.79857740  0.27589080  0.43526738    -0.15000
C1563       C  0.79676136  0.30129294  0.44454838     0.35600
C1564       C  0.79864237  0.32191391  0.42740055    -0.26400
C1565       C  0.80281320  0.31819899  0.40082443    -0.15700
C1566       C  0.80346093  0.29267285  0.39129508     0.36700
N1567       N  0.80630731  0.28704010  0.36444454    -0.89900
H1568       H  0.80180688  0.25255390  0.40085740     0.17800
H1569       H  0.79789134  0.34113368  0.43546608     0.17800
N1570       N  0.79348383  0.30649421  0.47146765    -0.88900
H1571       H  0.82434276  0.29353023  0.35821977     0.35200
H1572       H  0.79190801  0.29667258  0.35428464     0.40300
H1573       H  0.77659572  0.31713443  0.47381397     0.39900
H1574       H  0.80893913  0.31787070  0.47760152     0.34800
C1575       C  0.78391776  0.28687120  0.56032588    -0.27000
C1576       C  0.80341007  0.26832870  0.55677457    -0.15000
C1577       C  0.82678511  0.27160405  0.57048789     0.35600
C1578       C  0.83040999  0.29351184  0.58597797    -0.26400
C1579       C  0.81157689  0.31280890  0.58776107    -0.15700
C1580       C  0.78782313  0.30896604  0.57519869     0.36700
N1581       N  0.76720015  0.32709768  0.57722554    -0.89900
H1582       H  0.76551079  0.28475431  0.55077944     0.17800
H1583       H  0.84876708  0.29618390  0.59548376     0.17800
N1584       N  0.84747984  0.25359017  0.56862545    -0.88900
H1585       H  0.77278918  0.34445916  0.56872371     0.35200
H1586       H  0.76335531  0.33024366  0.59676882     0.40300
H1587       H  0.85333568  0.25246066  0.54937896     0.39900
H1588       H  0.84086919  0.23555348  0.57474166     0.34800
C1589       C  0.20352087  0.07687593  0.47340815    -0.27000
C1590       C  0.20393381  0.06501138  0.49784544    -0.15000
C1591       C  0.19937308  0.08074356  0.51974152     0.35600
C1592       C  0.19694368  0.10751073  0.51694096    -0.26400
C1593       C  0.19857531  0.11963438  0.49274862    -0.15700
C1594       C  0.20081291  0.10374250  0.47061315     0.36700
N1595       N  0.20160852  0.11427070  0.44510342    -0.89900
H1596       H  0.20679023  0.06540701  0.45629911     0.17800
H1597       H  0.19424910  0.11903859  0.53411556     0.17800
N1598       N  0.19699413  0.07026300  0.54519904    -0.88900
H1599       H  0.21675050  0.12750893  0.44397864     0.35200
H1600       H  0.18424505  0.12375273  0.44155963     0.40300
H1601       H  0.21478063  0.06323479  0.55125371     0.39900
H1602       H  0.18348633  0.05528941  0.54487534     0.34800
C1603       C  0.31296737  0.06726451  0.39704199    -0.27000
C1604       C  0.32720693  0.08708877  0.40856295    -0.15000
C1605       C  0.32060644  0.09549622  0.43373384     0.35600
C1606       C  0.30210632  0.08197875  0.44773548    -0.26400
C1607       C  0.29039217  0.06018259  0.43731110    -0.15700
C1608       C  0.29468816  0.05342590  0.41143389     0.36700
N1609       N  0.28211696  0.03119090  0.40072918    -0.89900
H1610       H  0.31752622  0.06126373  0.37758316     0.17800
H1611       H  0.29853890  0.08713022  0.46762613     0.17800
N1612       N  0.33275165  0.11714669  0.44587886    -0.88900
H1613       H  0.28786788  0.02840915  0.38162867     0.35200
H1614       H  0.26237606  0.03497827  0.40033148     0.40300
H1615       H  0.33160422  0.13304968  0.43357593     0.39900
H1616       H  0.35204042  0.11289801  0.44948332     0.34800
C1617       C  0.31352512  0.09936063  0.56258850    -0.27000
C1618       C  0.32498409  0.09120412  0.58561509    -0.15000
C1619       C  0.31877991  0.06677955  0.59584048     0.35600
C1620       C  0.30298609  0.05000665  0.58147025    -0.26400
C1621       C  0.29378798  0.05730262  0.55710223    -0.15700
C1622       C  0.29790649  0.08265078  0.54833590     0.36700
N1623       N  0.28685626  0.09120409  0.52456859    -0.89900
H1624       H  0.31783309  0.11836024  0.55494893     0.17800
H1625       H  0.29961134  0.03054809  0.58831569     0.17800
N1626       N  0.32984134  0.05851905  0.61981324    -0.88900
H1627       H  0.27514698  0.10704697  0.52853847     0.35200
H1628       H  0.30182188  0.09748990  0.51260086     0.40300
H1629       H  0.34972724  0.05713440  0.61715094     0.39900
H1630       H  0.32331134  0.04003820  0.62461061     0.34800
C1631       C  0.30137171  0.94816689  0.58037093    -0.27000
C1632       C  0.29809114  0.94550611  0.55367293    -0.15000
C1633       C  0.31027656  0.92529921  0.54056484     0.35600
C1634       C  0.32658886  0.90873121  0.55417533    -0.26400
C1635       C  0.33108100  0.91197388  0.58069477    -0.15700
C1636       C  0.31783550  0.93153178  0.59410242     0.36700
N1637       N  0.32227493  0.93541528  0.62110970    -0.89900
H1638       H  0.29218238  0.96407080  0.59021184     0.17800
H1639       H  0.33645606  0.89356158  0.54383379     0.17800
N1640       N  0.30685603  0.92242087  0.51323000    -0.88900
H1641       H  0.31081646  0.95039810  0.62806444     0.35200
H1642       H  0.34133766  0.94152352  0.62306435     0.40300
H1643       H  0.28747025  0.91803003  0.50998422     0.39900
H1644       H  0.31747653  0.90682124  0.50634084     0.34800
C1645       C  0.31131733  0.91157037  0.41848589    -0.27000
C1646       C  0.33235314  0.92173019  0.40462611    -0.15000
C1647       C  0.33736787  0.94846278  0.40570198     0.35600
C1648       C  0.32204348  0.96430502  0.42116328    -0.26400
C1649       C  0.30195911  0.95395903  0.43591795    -0.15700
C1650       C  0.29616570  0.92748443  0.43437809     0.36700
N1651       N  0.27549126  0.91684745  0.44951462    -0.89900
H1652       H  0.30741008  0.89106057  0.41780973     0.17800
H1653       H  0.32639432  0.98471984  0.42229964     0.17800
N1654       N  0.35814965  0.95962155  0.39126218    -0.88900
H1655       H  0.27391241  0.89698791  0.44644105     0.35200
H1656       H  0.25837380  0.92500863  0.44294332     0.40300
H1657       H  0.37060683  0.96873314  0.40419232     0.39900
H1658       H  0.35056142  0.97368446  0.37903778     0.34800
C1659       C  0.20685359  0.89135034  0.51322930    -0.27000
C1660       C  0.20381306  0.87910992  0.48924564    -0.15000
C1661       C  0.20226867  0.89445224  0.46688056     0.35600
C1662       C  0.20493590  0.92130544  0.46869056    -0.26400
C1663       C  0.20927580  0.93352386  0.49249060    -0.15700
C1664       C  0.20984389  0.91825905  0.51501063     0.36700
N1665       N  0.21489972  0.92971667  0.53956465    -0.89900
H1666       H  0.20801699  0.87989733  0.53066216     0.17800
H1667       H  0.20448027  0.93260491  0.45111989     0.17800
N1668       N  0.19795384  0.88290090  0.44221762    -0.88900
H1669       H  0.23155025  0.92131261  0.54710040     0.35200
H1670       H  0.19959017  0.92519110  0.55185047     0.40300
H1671       H  0.21331632  0.88792908  0.43015120     0.39900
H1672       H  0.18116063  0.89074732  0.43447119     0.34800
C1673       C  0.21565657  0.71572819  0.41301799    -0.27000
C1674       C  0.19517450  0.73138958  0.42137095    -0.15000
C1675       C  0.17043180  0.72702385  0.41106548     0.35600
C1676       C  0.16650139  0.70647554  0.39386012    -0.26400
C1677       C  0.18667072  0.68973990  0.38728901    -0.15700
C1678       C  0.21160545  0.69492519  0.39650934     0.36700
N1679       N  0.23315053  0.67922954  0.38959057    -0.89900
H1680       H  0.23501662  0.71908787  0.42000056     0.17800
H1681       H  0.14719742  0.70260065  0.38708966     0.17800
N1682       N  0.14902494  0.74246343  0.41888239    -0.88900
H1683       H  0.23441066  0.67868250  0.36948499     0.35200
H1684       H  0.23007302  0.66053077  0.39639073     0.40300
H1685       H  0.13516507  0.73030764  0.42714240     0.39900
H1686       H  0.14100769  0.75074241  0.40239121     0.34800
C1687       C  0.21476019  0.70061538  0.54209922    -0.27000
C1688       C  0.20071028  0.72326327  0.54583041    -0.15000
C1689       C  0.18394936  0.72504933  0.56716427     0.35600
C1690       C  0.18128210  0.70406829  0.58411863    -0.26400
C1691       C  0.19482573  0.68106589  0.57996685    -0.15700
C1692       C  0.21203652  0.67963426  0.55886451     0.36700
N1693       N  0.22655692  0.65672808  0.55406673    -0.89900
H1694       H  0.22807441  0.69915231  0.52606856     0.17800
H1695       H  0.16743863  0.70532126  0.59970481     0.17800
N1696       N  0.16870083  0.74764605  0.57100211    -0.88900
H1697       H  0.24610242  0.66160793  0.55407906     0.35200
H1698       H  0.22182775  0.65001644  0.53568740     0.40300
H1699       H  0.17279305  0.75494104  0.58930701     0.39900
H1700       H  0.14930653  0.74219474  0.57067106     0.34800
C1701       C  0.27089738  0.81107038  0.57108377    -0.27000
C1702       C  0.27576992  0.80080441  0.54664627    -0.15000
C1703       C  0.30120929  0.79391643  0.53979921     0.35600
C1704       C  0.32108787  0.79739451  0.55752867    -0.26400
C1705       C  0.31626703  0.80802035  0.58187269    -0.15700
C1706       C  0.29086995  0.81466077  0.58884502     0.36700
N1707       N  0.28553389  0.82525903  0.61385237    -0.89900
H1708       H  0.25136267  0.81599112  0.57645082     0.17800
H1709       H  0.34063993  0.79308577  0.55168199     0.17800
N1710       N  0.30768819  0.78477527  0.51457751    -0.88900
H1711       H  0.28985129  0.81110047  0.62752183     0.35200
H1712       H  0.26594729  0.82928921  0.61583777     0.40300
H1713       H  0.30127027  0.79821187  0.50100373     0.39900
H1714       H  0.29843666  0.76720429  0.51138906     0.34800
C1715       C  0.27383333  0.81966635  0.40842585    -0.27000
C1716       C  0.27592084  0.80079785  0.42770097    -0.15000
C1717       C  0.29891786  0.78657646  0.42965704     0.35600
C1718       C  0.31977315  0.79250968  0.41359333    -0.26400
C1719       C  0.31834523  0.81238741  0.39529651    -0.15700
C1720       C  0.29477371  0.82565383  0.39216506     0.36700
N1721       N  0.29252059  0.84607952  0.37358204    -0.89900
H1722       H  0.25607755  0.83037407  0.40658521     0.17800
H1723       H  0.33754787  0.78194851  0.41607130     0.17800
N1724       N  0.30125510  0.76598322  0.44791247    -0.88900
H1725       H  0.27449695  0.85483988  0.37490076     0.35200
H1726       H  0.29340596  0.83772059  0.35528748     0.40300
H1727       H  0.31684299  0.77008437  0.45995142     0.39900
H1728       H  0.30543784  0.74910824  0.43780062     0.34800
C1729       C  0.79284888  0.07949615  0.46554127    -0.27000
C1730       C  0.79434088  0.06457828  0.48817271    -0.15000
C1731       C  0.79957695  0.07735520  0.51175291     0.35600
C1732       C  0.80164624  0.10429526  0.51223109    -0.26400
C1733       C  0.79870937  0.11910626  0.48976506    -0.15700
C1734       C  0.79466273  0.10628693  0.46605896     0.36700
N1735       N  0.79068985  0.11984256  0.44233276    -0.89900
H1736       H  0.78885285  0.07043830  0.44717273     0.17800
H1737       H  0.80520386  0.11376511  0.53047753     0.17800
N1738       N  0.80234991  0.06382691  0.53564207    -0.88900
H1739       H  0.80742812  0.12997181  0.43750594     0.35200
H1740       H  0.77546617  0.13269693  0.44479505     0.40300
H1741       H  0.81685072  0.05007725  0.53356691     0.39900
H1742       H  0.78500532  0.05470751  0.54023758     0.34800
C1743       C  0.69273793  0.04608998  0.57066823    -0.27000
C1744       C  0.70407093  0.05616314  0.54821347    -0.15000
C1745       C  0.70018372  0.08221627  0.54171378     0.35600
C1746       C  0.68379180  0.09723466  0.55691753    -0.26400
C1747       C  0.67127242  0.08671693  0.57859425    -0.15700
C1748       C  0.67651471  0.06112816  0.58598539     0.36700
N1749       N  0.66429989  0.04944198  0.60786506    -0.89900
H1750       H  0.69546722  0.02597973  0.57558593     0.17800
H1751       H  0.67985447  0.11690346  0.55111800     0.17800
N1752       N  0.71144000  0.09337924  0.51906109    -0.88900
H1753       H  0.64435343  0.05047208  0.60544559     0.35200
H1754       H  0.66932298  0.05995333  0.62425843     0.40300
H1755       H  0.70519162  0.08292060  0.50306761     0.39900
H1756       H  0.73144335  0.09157133  0.52037739     0.34800
C1757       C  0.70467182  0.07921559  0.43557820    -0.27000
C1758       C  0.70830327  0.05398915  0.42666898    -0.15000
C1759       C  0.69851485  0.04682868  0.40233611     0.35600
C1760       C  0.68230450  0.06393106  0.38911100    -0.26400
C1761       C  0.67723143  0.08841326  0.39908952    -0.15700
C1762       C  0.68959366  0.09663824  0.42167498     0.36700
N1763       N  0.68567289  0.12219015  0.43124614    -0.89900
H1764       H  0.71265535  0.08504772  0.45394962     0.17800
H1765       H  0.67314551  0.05799743  0.37132968     0.17800
N1766       N  0.70376541  0.02180372  0.39191369    -0.88900
H1767       H  0.67766889  0.12080555  0.44970517     0.35200
H1768       H  0.70366653  0.13109667  0.43289068     0.40300
H1769       H  0.72345763  0.02103294  0.38785845     0.39900
H1770       H  0.69428738  0.01929391  0.37433106     0.34800
C1771       C  0.69225562  0.95535357  0.40701923    -0.27000
C1772       C  0.70728693  0.94537818  0.42705314    -0.15000
C1773       C  0.70874064  0.91854267  0.43080540     0.35600
C1774       C  0.69320967  0.90235718  0.41562484    -0.26400
C1775       C  0.67704302  0.91273242  0.39664797    -0.15700
C1776       C  0.67730067  0.93921935  0.39164344     0.36700
N1777       N  0.66092900  0.94994436  0.37226197    -0.89900
H1778       H  0.69100121  0.97592121  0.40421127     0.17800
H1779       H  0.69265429  0.88182296  0.41945019     0.17800
N1780       N  0.72421333  0.90810286  0.45119618    -0.88900
H1781       H  0.67246964  0.96017902  0.35924177     0.35200
H1782       H  0.64851328  0.96302751  0.38113883     0.40300
H1783       H  0.74344970  0.91191153  0.44666322     0.39900
H1784       H  0.72231234  0.88804073  0.45190111     0.34800
C1785       C  0.69452618  0.95415373  0.57219536    -0.27000
C1786       C  0.69891390  0.94825683  0.54612771    -0.15000
C1787       C  0.68928981  0.92507009  0.53592322     0.35600
C1788       C  0.67337194  0.90950647  0.55104001    -0.26400
C1789       C  0.66701930  0.91649953  0.57636068    -0.15700
C1790       C  0.67864294  0.93833771  0.58756127     0.36700
N1791       N  0.67296488  0.94529410  0.61373957    -0.89900
H1792       H  0.70226545  0.97183411  0.58015956     0.17800
H1793       H  0.66522893  0.89219682  0.54261377     0.17800
N1794       N  0.69530359  0.91747293  0.51006770    -0.88900
H1795       H  0.68208031  0.96263291  0.61850588     0.35200
H1796       H  0.68100147  0.93121859  0.62564575     0.40300
H1797       H  0.70425812  0.89948695  0.51077463     0.39900
H1798       H  0.67805825  0.91538264  0.49992716     0.34800
C1799       C  0.80023322  0.89333631  0.51846015    -0.27000
C1800       C  0.80158923  0.87992828  0.49500943    -0.15000
C1801       C  0.80072292  0.89419558  0.47177706     0.35600
C1802       C  0.79718952  0.92104979  0.47243342    -0.26400
C1803       C  0.79426600  0.93420379  0.49588346    -0.15700
C1804       C  0.79677936  0.92015645  0.51910202     0.36700
N1805       N  0.79547839  0.93297669  0.54348490    -0.89900
H1806       H  0.80145960  0.88292261  0.53652861     0.17800
H1807       H  0.79515127  0.93135878  0.45438567     0.17800
N1808       N  0.80217866  0.88144481  0.44737317    -0.88900
H1809       H  0.81259417  0.92937054  0.55339520     0.35200
H1810       H  0.78032470  0.92487433  0.55406169     0.40300
H1811       H  0.81769458  0.88925967  0.43712722     0.39900
H1812       H  0.78534006  0.88542392  0.43713921     0.34800
C1813       C  0.70948468  0.78795513  0.43114909    -0.27000
C1814       C  0.73203881  0.80304391  0.42955509    -0.15000
C1815       C  0.73395205  0.82181603  0.41006133     0.35600
C1816       C  0.71321721  0.82573097  0.39327615    -0.26400
C1817       C  0.69019156  0.81135703  0.39545235    -0.15700
C1818       C  0.68862503  0.79181488  0.41437484     0.36700
N1819       N  0.66563738  0.77656103  0.41722544    -0.89900
H1820       H  0.70786471  0.77325527  0.44591045     0.17800
H1821       H  0.71499617  0.84078124  0.37888240     0.17800
N1822       N  0.75686915  0.83697892  0.40712142    -0.88900
H1823       H  0.66723301  0.76391958  0.43284537     0.35200
H1824       H  0.66397477  0.76507634  0.40079176     0.40300
H1825       H  0.75188173  0.85638969  0.40887684     0.39900
H1826       H  0.76402171  0.83407911  0.38851553     0.34800
C1827       C  0.70696847  0.78841178  0.55228197    -0.27000
C1828       C  0.72751732  0.80572690  0.54963786    -0.15000
C1829       C  0.72754904  0.82877434  0.56370030     0.35600
C1830       C  0.70699442  0.83417763  0.58027208    -0.26400
C1831       C  0.68609176  0.81694170  0.58307500    -0.15700
C1832       C  0.68633672  0.79365839  0.56874427     0.36700
N1833       N  0.66596117  0.77504679  0.57005523    -0.89900
H1834       H  0.70703070  0.77051414  0.54155504     0.17800
H1835       H  0.70722452  0.85236032  0.59048802     0.17800
N1836       N  0.74798246  0.84713928  0.56048307    -0.88900
H1837       H  0.64897588  0.78347682  0.56349886     0.35200
H1838       H  0.66374243  0.76905581  0.58918293     0.40300
H1839       H  0.75627294  0.85047714  0.57851305     0.39900
H1840       H  0.73999617  0.86443663  0.55402406     0.34800
C1841       C  0.78809945  0.70585785  0.55181438    -0.27000
C1842       C  0.80468908  0.72726558  0.55434825    -0.15000
C1843       C  0.82434065  0.72647576  0.57297600     0.35600
C1844       C  0.82725379  0.70437345  0.58830443    -0.26400
C1845       C  0.81114990  0.68279742  0.58507383    -0.15700
C1846       C  0.79111234  0.68371204  0.56692650     0.36700
N1847       N  0.77407940  0.66204105  0.56372837    -0.89900
H1848       H  0.77280402  0.70615879  0.53766902     0.17800
H1849       H  0.84294268  0.70369811  0.60200344     0.17800
N1850       N  0.84139224  0.74791955  0.57642426    -0.88900
H1851       H  0.76045565  0.66575189  0.54943245     0.35200
H1852       H  0.76388298  0.65965771  0.58098043     0.40300
H1853       H  0.86016124  0.74152310  0.57356395     0.39900
H1854       H  0.83980387  0.75409140  0.59556854     0.34800
C1855       C  0.81930936  0.72937137  0.41289017    -0.27000
C1856       C  0.80502710  0.72426662  0.43538954    -0.15000
C1857       C  0.79501551  0.69901200  0.43911453     0.35600
C1858       C  0.80016241  0.67974416  0.42095879    -0.26400
C1859       C  0.81530403  0.68474232  0.39907619    -0.15700
C1860       C  0.82446517  0.71004407  0.39473656     0.36700
N1861       N  0.83926693  0.71599779  0.37203349    -0.89900
H1862       H  0.82678732  0.74858438  0.40945697     0.17800
H1863       H  0.79321288  0.66037153  0.42467136     0.17800
N1864       N  0.77956020  0.69215599  0.46097989    -0.88900
H1865       H  0.84479157  0.73537577  0.37186728     0.35200
H1866       H  0.82726273  0.71327981  0.35610700     0.40300
H1867       H  0.76345078  0.70414501  0.46153242     0.39900
H1868       H  0.79042543  0.69464649  0.47770660     0.34800
C1869       C  0.10881284  0.80056724  0.47077697    -0.27000
C1870       C  0.12289797  0.80003247  0.49386533    -0.15000
C1871       C  0.10935626  0.79872227  0.51743586     0.35600
C1872       C  0.08240297  0.79692062  0.51741081    -0.26400
C1873       C  0.06831185  0.79606337  0.49426499    -0.15700
C1874       C  0.08183776  0.79837784  0.47073486     0.36700
N1875       N  0.06852853  0.79719339  0.44663777    -0.89900
H1876       H  0.11883072  0.80162152  0.45247051     0.17800
H1877       H  0.07254736  0.79514955  0.53575494     0.17800
N1878       N  0.12280577  0.79915156  0.54151128    -0.88900
H1879       H  0.07579804  0.78163947  0.43617719     0.35200
H1880       H  0.07267989  0.81405836  0.43636350     0.40300
H1881       H  0.11815620  0.78236265  0.55167223     0.39900
H1882       H  0.11615049  0.81485503  0.55217020     0.34800
C1883       C  0.06772872  0.71521652  0.41300507    -0.27000
C1884       C  0.05998361  0.70616515  0.43729180    -0.15000
C1885       C  0.06799498  0.68171127  0.44592110     0.35600
C1886       C  0.08135774  0.66571182  0.42915631    -0.26400
C1887       C  0.08788242  0.67397079  0.40436604    -0.15700
C1888       C  0.08178894  0.69921081  0.39630491     0.36700
N1889       N  0.08874686  0.70794997  0.37093081    -0.89900
H1890       H  0.06138363  0.73397218  0.40646349     0.17800
H1891       H  0.08672946  0.64658135  0.43550686     0.17800
N1892       N  0.06179905  0.67297177  0.47152732    -0.88900
H1893       H  0.08271885  0.72694826  0.36808868     0.35200
H1894       H  0.07868350  0.69663560  0.35767693     0.40300
H1895       H  0.07161010  0.68489019  0.48441513     0.39900
H1896       H  0.06865762  0.65429821  0.47462687     0.34800
C1897       C  0.04402097  0.68993177  0.57091438    -0.27000
C1898       C  0.05333689  0.70693266  0.55210184    -0.15000
C1899       C  0.07998444  0.70924632  0.54790870     0.35600
C1900       C  0.09696165  0.69352217  0.56176717    -0.26400
C1901       C  0.08741117  0.67487162  0.57894045    -0.15700
C1902       C  0.06083886  0.67366466  0.58417785     0.36700
N1903       N  0.05087073  0.65560335  0.60260633    -0.89900
H1904       H  0.02352389  0.68810424  0.57417830     0.17800
H1905       H  0.11743803  0.69474550  0.55787580     0.17800
N1906       N  0.08970287  0.72696762  0.52904456    -0.88900
H1907       H  0.03765837  0.64363600  0.59323594     0.35200
H1908       H  0.04095234  0.66589593  0.61676377     0.40300
H1909       H  0.10017939  0.71653447  0.51541459     0.39900
H1910       H  0.10241832  0.73956430  0.53826359     0.34800
C1911       C  0.89519636  0.80307722  0.46703072    -0.27000
C1912       C  0.88269961  0.80238646  0.49101004    -0.15000
C1913       C  0.89788761  0.80225452  0.51358043     0.35600
C1914       C  0.92483309  0.80005904  0.51164851    -0.26400
C1915       C  0.93715609  0.79826517  0.48753512    -0.15700
C1916       C  0.92196599  0.80117156  0.46499574     0.36700
N1917       N  0.93294663  0.80213572  0.43965901    -0.89900
H1918       H  0.88400353  0.80449689  0.44949347     0.17800
H1919       H  0.93594189  0.79825252  0.52919976     0.17800
N1920       N  0.88609613  0.80353844  0.53851947    -0.88900
H1921       H  0.94778657  0.81582575  0.43945050     0.35200
H1922       H  0.94018177  0.78408438  0.43477981     0.40300
H1923       H  0.89346191  0.81979380  0.54799359     0.39900
H1924       H  0.89147432  0.78736848  0.54903755     0.34800
C1925       C  0.90456857  0.69636470  0.56626338    -0.27000
C1926       C  0.91532811  0.67639731  0.58106573    -0.15000
C1927       C  0.94220431  0.67427261  0.58299105     0.35600
C1928       C  0.95782154  0.69124871  0.56934439    -0.26400
C1929       C  0.94724802  0.70975325  0.55288141    -0.15700
C1930       C  0.92046130  0.71281057  0.55165386     0.36700
N1931       N  0.90941096  0.73109937  0.53428208    -0.89900
H1932       H  0.88385837  0.69801838  0.56459362     0.17800
H1933       H  0.97847918  0.68886034  0.57038953     0.17800
N1934       N  0.95380193  0.65445026  0.59820702    -0.88900
H1935       H  0.89763678  0.74320625  0.54491901     0.35200
H1936       H  0.89771661  0.72101544  0.52123393     0.40300
H1937       H  0.96582745  0.66321995  0.61177524     0.39900
H1938       H  0.96526292  0.64321361  0.58609549     0.34800
C1939       C  0.92566715  0.69840402  0.44114328    -0.27000
C1940       C  0.95035344  0.70432594  0.43188937    -0.15000
C1941       C  0.95810415  0.69508401  0.40746360     0.35600
C1942       C  0.94164964  0.67834411  0.39382202    -0.26400
C1943       C  0.91772370  0.67106642  0.40409847    -0.15700
C1944       C  0.90920289  0.68224847  0.42738382     0.36700
N1945       N  0.88376876  0.67788688  0.43728439    -0.89900
H1946       H  0.91936229  0.70590205  0.45958101     0.17800
H1947       H  0.94799888  0.66997587  0.37579352     0.17800
N1948       N  0.98322005  0.70120956  0.39746514    -0.88900
H1949       H  0.88122057  0.65837653  0.44117282     0.35200
H1950       H  0.87052256  0.68333787  0.42312810     0.40300
H1951       H  0.98349082  0.72090142  0.39321086     0.39900
H1952       H  0.98638582  0.69169336  0.38001908     0.34800
C1953       C  0.31705928  0.55004281  0.05553996    -0.27000
C1954       C  0.29279975  0.56009043  0.04952076    -0.15000
C1955       C  0.28452188  0.58289288  0.06171521     0.35600
C1956       C  0.30143023  0.59597018  0.07838080    -0.26400
C1957       C  0.32659607  0.58686858  0.08247567    -0.15700
C1958       C  0.33398648  0.56320366  0.07161922     0.36700
N1959       N  0.35887729  0.55252992  0.07660295    -0.89900
H1960       H  0.32348880  0.53228519  0.04668152     0.17800
H1961       H  0.29540110  0.61394900  0.08701962     0.17800
N1962       N  0.25986564  0.59386722  0.05641586    -0.88900
H1963       H  0.36844470  0.55042349  0.05899510     0.35200
H1964       H  0.35631382  0.53418658  0.08456560     0.40300
H1965       H  0.24572602  0.58037059  0.06147533     0.39900
H1966       H  0.25860027  0.59738312  0.03662703     0.34800
C1967       C  0.33118791  0.45833304  0.04418391    -0.27000
C1968       C  0.30513809  0.45177496  0.04166827    -0.15000
C1969       C  0.29538277  0.43019555  0.05492989     0.35600
C1970       C  0.31190666  0.41558706  0.07054362    -0.26400
C1971       C  0.33818713  0.42194785  0.07271744    -0.15700
C1972       C  0.34777034  0.44373507  0.05919654     0.36700
N1973       N  0.37404284  0.45208418  0.06060591    -0.89900
H1974       H  0.33899641  0.47483894  0.03393696     0.17800
H1975       H  0.30414121  0.39915126  0.08090326     0.17800
N1976       N  0.26871019  0.42345055  0.05312731    -0.88900
H1977       H  0.38593756  0.43779214  0.05296649     0.35200
H1978       H  0.37875678  0.45553386  0.07980176     0.40300
H1979       H  0.26092773  0.42366940  0.07173477     0.39900
H1980       H  0.26743045  0.40461910  0.04617202     0.34800
C1981       C  0.28829596  0.42722113  0.92550110    -0.27000
C1982       C  0.29924393  0.45028690  0.93445202    -0.15000
C1983       C  0.32460735  0.45703543  0.92711301     0.35600
C1984       C  0.33919731  0.43959730  0.91292381    -0.26400
C1985       C  0.32877828  0.41602486  0.90504628    -0.15700
C1986       C  0.30290687  0.40994361  0.91067772     0.36700
N1987       N  0.29193832  0.38598519  0.90214551    -0.89900
H1988       H  0.26882154  0.42213386  0.93108007     0.17800
H1989       H  0.35883120  0.44455061  0.90776614     0.17800
N1990       N  0.33552574  0.48151814  0.93428850    -0.88900
H1991       H  0.27270004  0.38451958  0.90791693     0.35200
H1992       H  0.30179293  0.37110880  0.91141804     0.40300
H1993       H  0.32487176  0.49584295  0.92506376     0.39900
H1994       H  0.35443043  0.48330041  0.92751499     0.34800
C1995       C  0.29379270  0.55709076  0.91095051    -0.27000
C1996       C  0.28888611  0.56710018  0.93550216    -0.15000
C1997       C  0.29723533  0.59225394  0.94176477     0.35600
C1998       C  0.31272999  0.60583919  0.92407379    -0.26400
C1999       C  0.31986432  0.59443960  0.90070646    -0.15700
C2000       C  0.30918155  0.57061076  0.89349669     0.36700
N2001       N  0.31508397  0.55957020  0.86889393    -0.89900
H2002       H  0.28704120  0.53795713  0.90592819     0.17800
H2003       H  0.32103346  0.62424511  0.92942932     0.17800
N2004       N  0.29210389  0.60280582  0.96683290    -0.88900
H2005       H  0.29778604  0.55633205  0.85915399     0.35200
H2006       H  0.32389524  0.54175312  0.87195846     0.40300
H2007       H  0.27229078  0.60592562  0.96812400     0.39900
H2008       H  0.30087778  0.62085928  0.96878652     0.34800
C2009       C  0.19667757  0.48002101  0.88548875    -0.27000
C2010       C  0.19798558  0.50280856  0.87078063    -0.15000
C2011       C  0.20000721  0.52654045  0.88391341     0.35600
C2012       C  0.20269171  0.52692223  0.91080132    -0.26400
C2013       C  0.20364702  0.50405493  0.92539234    -0.15700
C2014       C  0.19958040  0.48041285  0.91250956     0.36700
N2015       N  0.19945129  0.45662174  0.92650055    -0.89900
H2016       H  0.19453489  0.46160987  0.87591836     0.17800
H2017       H  0.20526413  0.54541183  0.92012184     0.17800
N2018       N  0.19967430  0.55044920  0.87008278    -0.88900
H2019       H  0.21407939  0.44499132  0.91910296     0.35200
H2020       H  0.18185708  0.44739618  0.92313158     0.40300
H2021       H  0.21684070  0.56028843  0.87394338     0.39900
H2022       H  0.18444627  0.56149312  0.87714819     0.34800
C2023       C  0.21453782  0.56479207  0.69992403    -0.27000
C2024       C  0.19505320  0.55985349  0.71831816    -0.15000
C2025       C  0.17118431  0.57246626  0.71566244     0.35600
C2026       C  0.16735098  0.58920435  0.69477309    -0.26400
C2027       C  0.18645391  0.59343106  0.67586798    -0.15700
C2028       C  0.21053671  0.58138352  0.67881439     0.36700
N2029       N  0.23077120  0.58577076  0.66037605    -0.89900
H2030       H  0.23308107  0.55555199  0.70187293     0.17800
H2031       H  0.14866136  0.59812883  0.69272764     0.17800
N2032       N  0.15063967  0.56801897  0.73377635    -0.88900
H2033       H  0.24709864  0.57514812  0.66514300     0.35200
H2034       H  0.23605111  0.60522262  0.66158708     0.40300
H2035       H  0.14433354  0.54898194  0.73132409     0.39900
H2036       H  0.13486039  0.57966142  0.72965169     0.34800
C2037       C  0.18280517  0.41593749  0.72109480    -0.27000
C2038       C  0.19614949  0.43904483  0.71620842    -0.15000
C2039       C  0.20492565  0.44413899  0.69087508     0.35600
C2040       C  0.19952485  0.42663321  0.67105835    -0.26400
C2041       C  0.18525064  0.40412235  0.67579560    -0.15700
C2042       C  0.17724327  0.39846640  0.70121303     0.36700
N2043       N  0.16319630  0.37516647  0.70669622    -0.89900
H2044       H  0.17627957  0.41160841  0.74046577     0.17800
H2045       H  0.20552174  0.43136394  0.65159411     0.17800
N2046       N  0.21922331  0.46707867  0.68500681    -0.88900
H2047       H  0.15852861  0.37401594  0.72625908     0.35200
H2048       H  0.17541100  0.35969276  0.70277524     0.40300
H2049       H  0.20917426  0.47735827  0.67092341     0.39900
H2050       H  0.23695481  0.46167426  0.67720832     0.34800
C2051       C  0.28893586  0.43214140  0.77592910    -0.27000
C2052       C  0.26928034  0.43392989  0.79461542    -0.15000
C2053       C  0.27070543  0.41769737  0.81658987     0.35600
C2054       C  0.29212413  0.40164161  0.81993431    -0.26400
C2055       C  0.31252558  0.40150289  0.80208882    -0.15700
C2056       C  0.31035907  0.41642331  0.77944049     0.36700
N2057       N  0.32945563  0.41591349  0.75947672    -0.89900
H2058       H  0.28817091  0.44361720  0.75849351     0.17800
H2059       H  0.29347821  0.39029644  0.83742666     0.17800
N2060       N  0.25112224  0.41724229  0.83603841    -0.88900
H2061       H  0.33252440  0.39673550  0.75412623     0.35200
H2062       H  0.34660946  0.42373907  0.76634589     0.40300
H2063       H  0.23359634  0.41234547  0.82744331     0.39900
H2064       H  0.24976532  0.43554608  0.84424671     0.34800
C2065       C  0.26906209  0.58052616  0.80307453    -0.27000
C2066       C  0.27412859  0.55713660  0.79048319    -0.15000
C2067       C  0.29930412  0.55285310  0.78069849     0.35600
C2068       C  0.31867395  0.57120003  0.78483729    -0.26400
C2069       C  0.31381989  0.59381429  0.79874105    -0.15700
C2070       C  0.28851301  0.59878619  0.80721141     0.36700
N2071       N  0.28247731  0.62226635  0.82032931    -0.89900
H2072       H  0.24990304  0.58462945  0.81021162     0.17800
H2073       H  0.33802123  0.56700393  0.77828167     0.17800
N2074       N  0.30599471  0.53019710  0.76652137    -0.88900
H2075       H  0.27503436  0.61756359  0.83847949     0.35200
H2076       H  0.26809779  0.63169821  0.80992930     0.40300
H2077       H  0.30360687  0.51410387  0.77837734     0.39900
H2078       H  0.29388772  0.52870079  0.75049682     0.34800
C2079       C  0.19807048  0.47805055  0.09707083    -0.27000
C2080       C  0.19948430  0.50184238  0.10987084    -0.15000
C2081       C  0.20138372  0.52472245  0.09509275     0.35600
C2082       C  0.20350415  0.52309627  0.06813589    -0.26400
C2083       C  0.20414149  0.49916798  0.05559748    -0.15700
C2084       C  0.20057179  0.47651234  0.07022626     0.36700
N2085       N  0.20017705  0.45180359  0.05798602    -0.89900
H2086       H  0.19617377  0.46033592  0.10800285     0.17800
H2087       H  0.20633767  0.54059413  0.05705811     0.17800
N2088       N  0.20180031  0.54949742  0.10742643    -0.88900
H2089       H  0.18266533  0.44284170  0.06241457     0.35200
H2090       H  0.21492412  0.44068877  0.06590406     0.40300
H2091       H  0.18379914  0.55218554  0.11607708     0.39900
H2092       H  0.20399720  0.56422863  0.09386418     0.34800
C2093       C  0.20508983  0.42978651  0.31034900    -0.27000
C2094       C  0.19083864  0.40722388  0.30588645    -0.15000
C2095       C  0.18300569  0.40145081  0.28041545     0.35600
C2096       C  0.18849531  0.41874346  0.26052499    -0.26400
C2097       C  0.20127344  0.44217476  0.26519212    -0.15700
C2098       C  0.21024083  0.44732867  0.29050806     0.36700
N2099       N  0.22456144  0.47007071  0.29689002    -0.89900
H2100       H  0.21116468  0.43459453  0.32972816     0.17800
H2101       H  0.18198327  0.41399470  0.24128297     0.17800
N2102       N  0.16953625  0.37819375  0.27397337    -0.88900
H2103       H  0.21306208  0.48620272  0.29366148     0.35200
H2104       H  0.24098033  0.47099498  0.28523627     0.40300
H2105       H  0.15112640  0.37856584  0.28202564     0.39900
H2106       H  0.17974686  0.36251074  0.28134469     0.34800
C2107       C  0.20515291  0.58116199  0.30189355    -0.27000
C2108       C  0.18453807  0.59823930  0.29905460    -0.15000
C2109       C  0.17083385  0.59867812  0.27544356     0.35600
C2110       C  0.17710885  0.58100999  0.25603104    -0.26400
C2111       C  0.19696814  0.56314965  0.25938543    -0.15700
C2112       C  0.21139329  0.56359970  0.28245384     0.36700
N2113       N  0.23181611  0.54565045  0.28674908    -0.89900
H2114       H  0.21570392  0.58040042  0.31986323     0.17800
H2115       H  0.16635355  0.58120732  0.23816870     0.17800
N2116       N  0.15029648  0.61670919  0.27134891    -0.88900
H2117       H  0.22747374  0.53497556  0.30328894     0.35200
H2118       H  0.24869907  0.55611501  0.29024539     0.40300
H2119       H  0.14190051  0.61405115  0.25325505     0.39900
H2120       H  0.15839736  0.63518194  0.27127896     0.34800
C2121       C  0.32162918  0.57101837  0.19693699    -0.27000
C2122       C  0.31858419  0.59500090  0.18467024    -0.15000
C2123       C  0.29367160  0.60229360  0.17660651     0.35600
C2124       C  0.27303094  0.58467509  0.17923985    -0.26400
C2125       C  0.27662281  0.56001559  0.18998074    -0.15700
C2126       C  0.30118277  0.55358974  0.19976825     0.36700
N2127       N  0.30551232  0.52935190  0.21251802    -0.89900
H2128       H  0.34043626  0.56530198  0.20379066     0.17800
H2129       H  0.25411822  0.59011175  0.17244962     0.17800
N2130       N  0.28946576  0.62711581  0.16511976    -0.88900
H2131       H  0.29525466  0.52964304  0.22985569     0.35200
H2132       H  0.32489471  0.52720970  0.21745815     0.40300
H2133       H  0.29290247  0.64096008  0.17930991     0.39900
H2134       H  0.27020096  0.62915387  0.15969742     0.34800
C2135       C  0.29562151  0.40658182  0.15847016    -0.27000
C2136       C  0.31553943  0.40564907  0.17673210    -0.15000
C2137       C  0.31308249  0.41957653  0.19975532     0.35600
C2138       C  0.29165860  0.43524490  0.20361479    -0.26400
C2139       C  0.27224931  0.43751647  0.18483891    -0.15700
C2140       C  0.27402822  0.42241841  0.16229194     0.36700
N2141       N  0.25437227  0.42340839  0.14302525    -0.89900
H2142       H  0.29744633  0.39609337  0.14052727     0.17800
H2143       H  0.29062838  0.44609020  0.22139608     0.17800
N2144       N  0.33253856  0.41807793  0.21922058    -0.88900
H2145       H  0.24712976  0.40478449  0.14050186     0.35200
H2146       H  0.26286640  0.42926001  0.12566216     0.40300
H2147       H  0.32389164  0.41155333  0.23624114     0.39900
H2148       H  0.33963810  0.43666167  0.22248369     0.34800
C2149       C  0.10934809  0.47313989  0.19604392    -0.27000
C2150       C  0.12149640  0.49693861  0.19152548    -0.15000
C2151       C  0.10596646  0.51919229  0.18899913     0.35600
C2152       C  0.07902291  0.51717409  0.19235383    -0.26400
C2153       C  0.06711331  0.49347532  0.19824506    -0.15700
C2154       C  0.08262599  0.47115083  0.19922439     0.36700
N2155       N  0.07149194  0.44627279  0.20391764    -0.89900
H2156       H  0.12069920  0.45573331  0.19744068     0.17800
H2157       H  0.06746516  0.53447017  0.19160534     0.17800
N2158       N  0.11750036  0.54389080  0.18384041    -0.88900
H2159       H  0.07625499  0.43427217  0.18848840     0.35200
H2160       H  0.07977353  0.43866707  0.22061177     0.40300
H2161       H  0.12831839  0.54902796  0.20002547     0.39900
H2162       H  0.10338465  0.55800841  0.18176314     0.34800
C2163       C  0.07017992  0.40063626  0.30524879    -0.27000
C2164       C  0.08901888  0.41495009  0.31831449    -0.15000
C2165       C  0.09203222  0.44142691  0.31280649     0.35600
C2166       C  0.07372995  0.45374937  0.29750129    -0.26400
C2167       C  0.05287187  0.44009284  0.28704058    -0.15700
C2168       C  0.05218431  0.41297443  0.28922346     0.36700
N2169       N  0.03249360  0.39828235  0.27651893    -0.89900
H2170       H  0.06855442  0.38010722  0.30870561     0.17800
H2171       H  0.07515472  0.47439770  0.29462421     0.17800
N2172       N  0.11316755  0.45585251  0.32351062    -0.88900
H2173       H  0.03419168  0.37870662  0.28100906     0.35200
H2174       H  0.03572340  0.39987693  0.25670283     0.40300
H2175       H  0.13017885  0.44829407  0.31586625     0.39900
H2176       H  0.11243152  0.47513122  0.31772460     0.34800
C2177       C  0.09169145  0.57387654  0.30130739    -0.27000
C2178       C  0.08097517  0.58761132  0.32195213    -0.15000
C2179       C  0.05438509  0.58625796  0.32667672     0.35600
C2180       C  0.03898318  0.57080693  0.31108949    -0.26400
C2181       C  0.04955334  0.55634050  0.29078894    -0.15700
C2182       C  0.07616302  0.55821317  0.28549042     0.36700
N2183       N  0.08754267  0.54303597  0.26535858    -0.89900
H2184       H  0.11231104  0.57466300  0.29815353     0.17800
H2185       H  0.01861706  0.56952080  0.31541705     0.17800
N2186       N  0.04273091  0.59967890  0.34776652    -0.88900
H2187       H  0.10751596  0.54550278  0.26512769     0.35200
H2188       H  0.08087526  0.55018640  0.24776689     0.40300
H2189       H  0.04665277  0.61933367  0.34562557     0.39900
H2190       H  0.05118432  0.59335717  0.36489995     0.34800
C2191       C  0.95722732  0.57774237  0.29807202    -0.27000
C2192       C  0.94578888  0.55664537  0.28567511    -0.15000
C2193       C  0.91911191  0.55248575  0.28752713     0.35600
C2194       C  0.90446515  0.56880546  0.30322084    -0.26400
C2195       C  0.91634820  0.58851926  0.31740716    -0.15700
C2196       C  0.94282986  0.59347473  0.31447947     0.36700
N2197       N  0.95494241  0.61433384  0.32813029    -0.89900
H2198       H  0.97775353  0.58096200  0.29619975     0.17800
H2199       H  0.88399329  0.56533813  0.30546311     0.17800
N2200       N  0.90725199  0.53146909  0.27394022    -0.88900
H2201       H  0.97430321  0.61599520  0.32280087     0.35200
H2202       H  0.95486105  0.60969465  0.34772485     0.40300
H2203       H  0.90945202  0.53502758  0.25420825     0.39900
H2204       H  0.88746798  0.53091880  0.27760350     0.34800
C2205       C  0.91472854  0.44254266  0.28276978    -0.27000
C2206       C  0.94009393  0.43409249  0.27964935    -0.15000
C2207       C  0.94772013  0.41040722  0.29051401     0.35600
C2208       C  0.93025157  0.39630495  0.30577951    -0.26400
C2209       C  0.90565571  0.40592946  0.31084955    -0.15700
C2210       C  0.89741848  0.42874399  0.29853037     0.36700
N2211       N  0.87196835  0.43845049  0.30326441    -0.89900
H2212       H  0.90904221  0.46084200  0.27450807     0.17800
H2213       H  0.93653420  0.37892514  0.31546072     0.17800
N2214       N  0.97371900  0.40166722  0.28730540    -0.88900
H2215       H  0.86901262  0.45559570  0.29310176     0.35200
H2216       H  0.85888345  0.42501920  0.29590620     0.40300
H2217       H  0.97650082  0.39799408  0.26769322     0.39900
H2218       H  0.97647911  0.38420849  0.29694341     0.34800
C2219       C  0.89552409  0.52123961  0.18438919    -0.27000
C2220       C  0.88172668  0.49818321  0.18857255    -0.15000
C2221       C  0.89601499  0.47528555  0.19302902     0.35600
C2222       C  0.92291498  0.47632938  0.19468184    -0.26400
C2223       C  0.93639445  0.49971490  0.19266853    -0.15700
C2224       C  0.92256235  0.52227783  0.18646638     0.36700
N2225       N  0.93595667  0.54633205  0.18302229    -0.89900
H2226       H  0.88514779  0.53883659  0.18035938     0.17800
H2227       H  0.93316494  0.45883538  0.19947819     0.17800
N2228       N  0.88399315  0.45064427  0.19652756    -0.88900
H2229       H  0.92303944  0.56112285  0.17875498     0.35200
H2230       H  0.94795527  0.54440414  0.16695639     0.40300
H2231       H  0.87265767  0.45104936  0.21317559     0.39900
H2232       H  0.87255178  0.44663794  0.18047925     0.34800
C2233       C  0.71287081  0.43332744  0.20706614    -0.27000
C2234       C  0.73084040  0.43728669  0.18704102    -0.15000
C2235       C  0.72818087  0.42266721  0.16426090     0.35600
C2236       C  0.70718824  0.40561237  0.16155898    -0.26400
C2237       C  0.68838043  0.40318785  0.18095499    -0.15700
C2238       C  0.69175422  0.41686671  0.20420032     0.36700
N2239       N  0.67409280  0.41445736  0.22533023    -0.89900
H2240       H  0.71470407  0.44366965  0.22508396     0.17800
H2241       H  0.70479065  0.39542988  0.14351792     0.17800
N2242       N  0.74621488  0.42548155  0.14354175    -0.88900
H2243       H  0.67204462  0.39491144  0.22988084     0.35200
H2244       H  0.65624012  0.42179272  0.21995499     0.40300
H2245       H  0.75418789  0.40741171  0.13979234     0.39900
H2246       H  0.73612754  0.43131532  0.12713739     0.34800
C2247       C  0.73150454  0.58614052  0.18220528    -0.27000
C2248       C  0.72688537  0.56127345  0.19197353    -0.15000
C2249       C  0.70163540  0.55480906  0.20019234     0.35600
C2250       C  0.68163927  0.57265642  0.19738728    -0.26400
C2251       C  0.68605283  0.59674584  0.18600077    -0.15700
C2252       C  0.71137286  0.60376137  0.17902034     0.36700
N2253       N  0.71661840  0.62861751  0.16812893    -0.89900
H2254       H  0.75073219  0.59181873  0.17633627     0.17800
H2255       H  0.66222560  0.56687430  0.20252927     0.17800
N2256       N  0.69592966  0.53000527  0.21096535    -0.88900
H2257       H  0.72483034  0.62594985  0.14992462     0.35200
H2258       H  0.73020563  0.63785483  0.17976535     0.40300
H2259       H  0.68186010  0.52122686  0.19954620     0.39900
H2260       H  0.68819372  0.53270572  0.22937384     0.34800
C2261       C  0.78720434  0.56726357  0.28089608    -0.27000
C2262       C  0.80645930  0.56413626  0.26195543    -0.15000
C2263       C  0.82958296  0.57831384  0.26452988     0.35600
C2264       C  0.83317050  0.59451986  0.28602223    -0.26400
C2265       C  0.81433440  0.59647720  0.30542965    -0.15700
C2266       C  0.79095029  0.58306978  0.30252053     0.36700
N2267       N  0.77122702  0.58522972  0.32185377    -0.89900
H2268       H  0.76914199  0.55693271  0.27919725     0.17800
H2269       H  0.85139090  0.60447088  0.28822313     0.17800
N2270       N  0.84974170  0.57590233  0.24584623    -0.88900
H2271       H  0.75520690  0.57401843  0.31701746     0.35200
H2272       H  0.76508662  0.60439209  0.32200451     0.40300
H2273       H  0.86626205  0.56949507  0.25529625     0.39900
H2274       H  0.85365213  0.59420533  0.23832409     0.34800
C2275       C  0.79794201  0.43230715  0.31047535    -0.27000
C2276       C  0.80339852  0.40640203  0.30558822    -0.15000
C2277       C  0.80591459  0.39799654  0.27995175     0.35600
C2278       C  0.80415978  0.41583476  0.25969834    -0.26400
C2279       C  0.80011882  0.44216883  0.26459542    -0.15700
C2280       C  0.79658549  0.45026892  0.29039524     0.36700
N2281       N  0.79221489  0.47678845  0.29654456    -0.89900
H2282       H  0.79640516  0.43908217  0.33014954     0.17800
H2283       H  0.80623601  0.40899084  0.24009988     0.17800
N2284       N  0.81043646  0.37136432  0.27447921    -0.88900
H2285       H  0.80688639  0.48295988  0.30887692     0.35200
H2286       H  0.77475411  0.47806880  0.30647740     0.40300
H2287       H  0.82763750  0.37000955  0.26408674     0.39900
H2288       H  0.79552092  0.36475045  0.26269991     0.34800
C2289       C  0.10610860  0.51985664  0.79583942    -0.27000
C2290       C  0.11880514  0.49644071  0.79106752    -0.15000
C2291       C  0.10365783  0.47429884  0.78561451     0.35600
C2292       C  0.07670969  0.47661633  0.78335336    -0.26400
C2293       C  0.06445148  0.50052577  0.78605034    -0.15700
C2294       C  0.07931883  0.52206619  0.79337939     0.36700
N2295       N  0.06733738  0.54644873  0.79790493    -0.89900
H2296       H  0.11706671  0.53694585  0.80075945     0.17800
H2297       H  0.06547105  0.45993732  0.77770961     0.17800
N2298       N  0.11550083  0.44958488  0.78204838    -0.88900
H2299       H  0.07549899  0.55993142  0.78528363     0.35200
H2300       H  0.07162503  0.55214094  0.81672938     0.40300
H2301       H  0.12514999  0.45002787  0.76436758     0.39900
H2302       H  0.10152478  0.43511467  0.78052560     0.34800
C2303       C  0.09484350  0.56778158  0.67083774    -0.27000
C2304       C  0.08679377  0.59135144  0.66043642    -0.15000
C2305       C  0.06372630  0.60255756  0.66933805     0.35600
C2306       C  0.04811874  0.58878676  0.68695676    -0.26400
C2307       C  0.05528083  0.56418910  0.69564675    -0.15700
C2308       C  0.07944661  0.55419055  0.68848729     0.36700
N2309       N  0.08770390  0.52969306  0.69838660    -0.89900
H2310       H  0.11288925  0.55952073  0.66445212     0.17800
H2311       H  0.02948834  0.59637788  0.69236977     0.17800
N2312       N  0.05526270  0.62675251  0.65896363    -0.88900
H2313       H  0.08983541  0.53158861  0.71831339     0.35200
H2314       H  0.10583709  0.52492784  0.69105810     0.40300
H2315       H  0.06815904  0.64092979  0.66515636     0.39900
H2316       H  0.03728952  0.63166791  0.66656052     0.34800
C2317       C  0.03961261  0.43145595  0.66830267    -0.27000
C2318       C  0.04986665  0.44292149  0.69055722    -0.15000
C2319       C  0.07506544  0.43679310  0.69829487     0.35600
C2320       C  0.09008000  0.42049847  0.68275657    -0.26400
C2321       C  0.08006143  0.41039075  0.65977536    -0.15700
C2322       C  0.05450161  0.41539443  0.65278019     0.36700
N2323       N  0.04422345  0.40508176  0.62922928    -0.89900
H2324       H  0.02002918  0.43563819  0.66253922     0.17800
H2325       H  0.10996314  0.41690475  0.68787164     0.17800
N2326       N  0.08584143  0.44800479  0.72103258    -0.88900
H2327       H  0.02520013  0.41099453  0.62659302     0.35200
H2328       H  0.04375359  0.38502896  0.63106564     0.40300
H2329       H  0.10230986  0.45840458  0.71574023     0.39900
H2330       H  0.09151431  0.43297128  0.73313374     0.34800
C2331       C  0.95077275  0.42293184  0.68538095    -0.27000
C2332       C  0.94515926  0.44921671  0.68881456    -0.15000
C2333       C  0.92246754  0.45927489  0.67804203     0.35600
C2334       C  0.90711248  0.44371906  0.66234483    -0.26400
C2335       C  0.91374970  0.41804228  0.65734370    -0.15700
C2336       C  0.93519218  0.40726549  0.66975780     0.36700
N2337       N  0.94198851  0.38091923  0.66547523    -0.89900
H2338       H  0.96801593  0.41478489  0.69374170     0.17800
H2339       H  0.89014774  0.45199015  0.65350412     0.17800
N2340       N  0.91494063  0.48529988  0.68286944    -0.88900
H2341       H  0.94244566  0.37160913  0.68333972     0.35200
H2342       H  0.96054928  0.38048938  0.65766629     0.40300
H2343       H  0.89670714  0.48497174  0.69144514     0.39900
H2344       H  0.91342859  0.49484513  0.66519121     0.34800
C2345       C  0.90563517  0.57697060  0.68142070    -0.27000
C2346       C  0.91640152  0.59653069  0.66611019    -0.15000
C2347       C  0.94203171  0.60442385  0.67012734     0.35600
C2348       C  0.95726897  0.59069860  0.68737394    -0.26400
C2349       C  0.94715942  0.56953598  0.70088655    -0.15700
C2350       C  0.92074171  0.56363798  0.69913672     0.36700
N2351       N  0.90926083  0.54322942  0.71382941    -0.89900
H2352       H  0.88576007  0.57118831  0.67864667     0.17800
H2353       H  0.97758865  0.59531899  0.68878161     0.17800
N2354       N  0.95359040  0.62475607  0.65541505    -0.88900
H2355       H  0.91129741  0.54771035  0.73337366     0.35200
H2356       H  0.91936602  0.52633930  0.71033198     0.40300
H2357       H  0.94302944  0.64155043  0.65843911     0.39900
H2358       H  0.95241534  0.61982404  0.63593097     0.34800
C2359       C  0.89298679  0.52055575  0.79252158    -0.27000
C2360       C  0.87925658  0.49710214  0.79154788    -0.15000
C2361       C  0.89333682  0.47396346  0.78907901     0.35600
C2362       C  0.92020321  0.47499010  0.78565207    -0.26400
C2363       C  0.93379094  0.49852595  0.78494857    -0.15700
C2364       C  0.91995574  0.52145359  0.78933785     0.36700
N2365       N  0.93297502  0.54581312  0.78968093    -0.89900
H2366       H  0.88267054  0.53849582  0.79484589     0.17800
H2367       H  0.93053124  0.45715034  0.78270647     0.17800
N2368       N  0.88037818  0.44943344  0.78976265    -0.88900
H2369       H  0.92951357  0.55439413  0.80752687     0.35200
H2370       H  0.92488885  0.55759463  0.77550080     0.40300
H2371       H  0.87263321  0.44712530  0.80824101     0.39900
H2372       H  0.89342291  0.43438229  0.78715623     0.34800
C2373       C  0.81404758  0.41754526  0.72074192    -0.27000
C2374       C  0.80229408  0.44145448  0.71599037    -0.15000
C2375       C  0.79537524  0.44767692  0.69036131     0.35600
C2376       C  0.80037804  0.43020868  0.67034087    -0.26400
C2377       C  0.81290724  0.40679027  0.67504619    -0.15700
C2378       C  0.81967528  0.40043850  0.70056851     0.36700
N2379       N  0.83242859  0.37666392  0.70609297    -0.89900
H2380       H  0.81942739  0.41220984  0.74018426     0.17800
H2381       H  0.79558300  0.43565327  0.65076834     0.17800
N2382       N  0.78354495  0.47181893  0.68436057    -0.88900
H2383       H  0.82113874  0.36633730  0.71926654     0.35200
H2384       H  0.84998495  0.38096382  0.71493716     0.40300
H2385       H  0.76588749  0.46807356  0.67546644     0.39900
H2386       H  0.79529823  0.48153099  0.67114372     0.34800
C2387       C  0.78779998  0.56418657  0.69990203    -0.27000
C2388       C  0.80539159  0.56176303  0.72044642    -0.15000
C2389       C  0.82826546  0.57665662  0.71975709     0.35600
C2390       C  0.83302077  0.59290920  0.69887120    -0.26400
C2391       C  0.81589384  0.59467999  0.67794687    -0.15700
C2392       C  0.79285672  0.58033894  0.67875885     0.36700
N2393       N  0.77465082  0.58177691  0.65813494    -0.89900
H2394       H  0.77002867  0.55319554  0.69993395     0.17800
H2395       H  0.85094972  0.60364561  0.69878889     0.17800
N2396       N  0.84731763  0.57569764  0.73964933    -0.88900
H2397       H  0.75707569  0.58785533  0.66576602     0.35200
H2398       H  0.77207783  0.56323143  0.65069539     0.40300
H2399       H  0.85442914  0.55694085  0.74100288     0.39900
H2400       H  0.83889962  0.58112411  0.75710725     0.34800
C2401       C  0.70212090  0.55419925  0.77704834    -0.27000
C2402       C  0.72397533  0.55774961  0.79252179    -0.15000
C2403       C  0.72435035  0.57811855  0.81053957     0.35600
C2404       C  0.70257709  0.59404638  0.81301619    -0.26400
C2405       C  0.68036270  0.58979652  0.79812422    -0.15700
C2406       C  0.68045865  0.57002823  0.77950823     0.36700
N2407       N  0.65839327  0.56588440  0.76334164    -0.89900
H2408       H  0.70195841  0.53898525  0.76278619     0.17800
H2409       H  0.70243502  0.60889276  0.82766089     0.17800
N2410       N  0.74633615  0.58196685  0.82688289    -0.88900
H2411       H  0.66145649  0.55044980  0.75082111     0.35200
H2412       H  0.65622230  0.58228493  0.75183537     0.40300
H2413       H  0.74789941  0.56578805  0.83880515     0.39900
H2414       H  0.74349338  0.59774744  0.83903525     0.34800
C2415       C  0.70525370  0.43976104  0.77905046    -0.27000
C2416       C  0.72698016  0.43764978  0.79506230    -0.15000
C2417       C  0.72699192  0.41873984  0.81471722     0.35600
C2418       C  0.70498345  0.40316467  0.81837340    -0.26400
C2419       C  0.68305970  0.40605904  0.80281677    -0.15700
C2420       C  0.68350035  0.42426353  0.78272586     0.36700
N2421       N  0.66178638  0.42720232  0.76601570    -0.89900
H2422       H  0.70483215  0.45389598  0.76366995     0.17800
H2423       H  0.70459048  0.38939518  0.83408344     0.17800
N2424       N  0.74910336  0.41546610  0.83096427    -0.88900
H2425       H  0.66791542  0.42394838  0.74710590     0.35200
H2426       H  0.65548359  0.44626312  0.76727550     0.40300
H2427       H  0.76410488  0.40868866  0.81939814     0.39900
H2428       H  0.74563431  0.40124541  0.84485295     0.34800
C2429       C  0.79122354  0.52532445  0.06865543    -0.27000
C2430       C  0.79505296  0.50201499  0.05555274    -0.15000
C2431       C  0.80369775  0.48037734  0.06965913     0.35600
C2432       C  0.80700690  0.48219273  0.09636865    -0.26400
C2433       C  0.80111826  0.50493530  0.10985739    -0.15700
C2434       C  0.79376349  0.52691488  0.09554163     0.36700
N2435       N  0.78813742  0.55077165  0.10812872    -0.89900
H2436       H  0.78455821  0.54211125  0.05823381     0.17800
H2437       H  0.81322628  0.46519878  0.10673314     0.17800
N2438       N  0.80922791  0.45626262  0.05749983    -0.88900
H2439       H  0.76916339  0.55577768  0.10379431     0.35200
H2440       H  0.80027898  0.56497081  0.10045488     0.40300
H2441       H  0.82208293  0.45958353  0.04231357     0.39900
H2442       H  0.79224053  0.44836723  0.05021213     0.34800
C2443       C  0.68955440  0.42395951  0.03603898    -0.27000
C2444       C  0.70067762  0.44665013  0.04556399    -0.15000
C2445       C  0.69821036  0.45299779  0.07182671     0.35600
C2446       C  0.68375006  0.43673408  0.08799335    -0.26400
C2447       C  0.67129071  0.41493986  0.07796918    -0.15700
C2448       C  0.67446834  0.40832003  0.05187470     0.36700
N2449       N  0.66248126  0.38594101  0.04100579    -0.89900
H2450       H  0.69154541  0.41903743  0.01586337     0.17800
H2451       H  0.68124434  0.44162231  0.10814300     0.17800
N2452       N  0.71002779  0.47601621  0.08175031    -0.88900
H2453       H  0.64253454  0.38776537  0.04267661     0.35200
H2454       H  0.66824559  0.36982832  0.05161042     0.40300
H2455       H  0.72996277  0.47400822  0.07983250     0.39900
H2456       H  0.70625966  0.47788629  0.10144724     0.34800
C2457       C  0.70596461  0.55591921  0.07417026    -0.27000
C2458       C  0.70880759  0.56518736  0.04897999    -0.15000
C2459       C  0.69710437  0.58849639  0.04165383     0.35600
C2460       C  0.68081564  0.60107803  0.05907730    -0.26400
C2461       C  0.67587407  0.59041169  0.08337148    -0.15700
C2462       C  0.68946322  0.56827996  0.09145424     0.36700
N2463       N  0.68661480  0.55785415  0.11690256    -0.89900
H2464       H  0.71513096  0.53806482  0.07982337     0.17800
H2465       H  0.67063231  0.61825134  0.05308838     0.17800
N2466       N  0.70080776  0.59847459  0.01606476    -0.88900
H2467       H  0.66753937  0.55221004  0.11970957     0.35200
H2468       H  0.69106184  0.57236147  0.13018381     0.40300
H2469       H  0.72030984  0.60315502  0.01405869     0.39900
H2470       H  0.69056325  0.61557178  0.01356802     0.34800
C2471       C  0.79172113  0.48091244  0.91316945    -0.27000
C2472       C  0.79313060  0.50478921  0.92579342    -0.15000
C2473       C  0.79893878  0.52703880  0.91121089     0.35600
C2474       C  0.80147457  0.52534458  0.88436313    -0.26400
C2475       C  0.79874892  0.50170617  0.87151574    -0.15700
C2476       C  0.79452739  0.47907328  0.88622208     0.36700
N2477       N  0.79146894  0.45455972  0.87372931    -0.89900
H2478       H  0.78696277  0.46377302  0.92415916     0.17800
H2479       H  0.80527232  0.54277948  0.87345705     0.17800
N2480       N  0.80193078  0.55153111  0.92355539    -0.88900
H2481       H  0.78615291  0.44036257  0.88706491     0.35200
H2482       H  0.80949223  0.44916448  0.86666949     0.40300
H2483       H  0.78854561  0.56424846  0.91563569     0.39900
H2484       H  0.82034217  0.55854641  0.91928209     0.34800
C2485       C  0.68552799  0.58185246  0.94850016    -0.27000
C2486       C  0.70338048  0.56395606  0.93949170    -0.15000
C2487       C  0.70654942  0.55986523  0.91287727     0.35600
C2488       C  0.69068203  0.57318449  0.89557877    -0.26400
C2489       C  0.67137879  0.58961407  0.90479836    -0.15700
C2490       C  0.66926767  0.59452614  0.93137197     0.36700
N2491       N  0.65021733  0.61191025  0.94104401    -0.89900
H2492       H  0.68295230  0.58466111  0.96901101     0.17800
H2493       H  0.69229423  0.56955966  0.87507564     0.17800
N2494       N  0.72498276  0.54142053  0.90374834    -0.88900
H2495       H  0.65962895  0.62641759  0.95137448     0.35200
H2496       H  0.63836139  0.60177276  0.95385803     0.40300
H2497       H  0.74324857  0.54807929  0.90892165     0.39900
H2498       H  0.72471905  0.54052440  0.88361616     0.34800
C2499       C  0.68221741  0.42746676  0.95096311    -0.27000
C2500       C  0.70115447  0.44341151  0.94004974    -0.15000
C2501       C  0.70643066  0.44186254  0.91346355     0.35600
C2502       C  0.69125490  0.42547313  0.89804130    -0.26400
C2503       C  0.67100724  0.41089165  0.90885585    -0.15700
C2504       C  0.66728839  0.41118722  0.93584400     0.36700
N2505       N  0.64879759  0.39499472  0.94859654    -0.89900
H2506       H  0.67857999  0.42805320  0.97151734     0.17800
H2507       H  0.69438811  0.42507887  0.87739351     0.17800
N2508       N  0.72634341  0.45754196  0.90215016    -0.88900
H2509       H  0.65177645  0.37593687  0.94287156     0.35200
H2510       H  0.63024271  0.40067625  0.94351996     0.40300
H2511       H  0.72091890  0.47681192  0.90411794     0.39900
H2512       H  0.72779947  0.45397147  0.88238259     0.34800
C2513       C  0.59971966  0.06550658  0.31089827    -0.27000
C2514       C  0.58732192  0.08694082  0.32155743    -0.15000
C2515       C  0.56163550  0.09214755  0.31468452     0.35600
C2516       C  0.54818044  0.07491464  0.29895122    -0.26400
C2517       C  0.55986517  0.05240317  0.28982719    -0.15700
C2518       C  0.58612054  0.04804551  0.29524922     0.36700
N2519       N  0.59860335  0.02519700  0.28631924    -0.89900
H2520       H  0.61950362  0.06143194  0.31599388     0.17800
H2521       H  0.52819015  0.07879216  0.29449722     0.17800
N2522       N  0.54904783  0.11485491  0.32390082    -0.88900
H2523       H  0.60543869  0.01519574  0.30231004     0.35200
H2524       H  0.61453416  0.03080042  0.27516904     0.40300
H2525       H  0.53256593  0.10916182  0.33401288     0.39900
H2526       H  0.54318786  0.12565145  0.30793326     0.34800
C2527       C  0.42524711  0.03658096  0.30591135    -0.27000
C2528       C  0.43997069  0.04812939  0.28626482    -0.15000
C2529       C  0.43841117  0.07483660  0.28200114     0.35600
C2530       C  0.42330489  0.08970335  0.29875475    -0.26400
C2531       C  0.41035111  0.07822300  0.31970847    -0.15700
C2532       C  0.41047754  0.05138141  0.32263038     0.36700
N2533       N  0.39575944  0.03911793  0.34259452    -0.89900
H2534       H  0.42602085  0.01594127  0.30897782     0.17800
H2535       H  0.42285141  0.11044149  0.29635802     0.17800
N2536       N  0.45308397  0.08685304  0.26173413    -0.88900
H2537       H  0.40836635  0.02855096  0.35414378     0.35200
H2538       H  0.38297047  0.02616630  0.33394528     0.40300
H2539       H  0.47261148  0.08449216  0.26603097     0.39900
H2540       H  0.44979205  0.10666551  0.26138651     0.34800
C2541       C  0.45525481  0.92099164  0.29338785    -0.27000
C2542       C  0.44443172  0.94317827  0.28259803    -0.15000
C2543       C  0.41809932  0.94849109  0.28671700     0.35600
C2544       C  0.40405919  0.93339962  0.30422409    -0.26400
C2545       C  0.41614777  0.91348108  0.31767906    -0.15700
C2546       C  0.44133648  0.90597499  0.31088929     0.36700
N2547       N  0.45303460  0.88382732  0.32269608    -0.89900
H2548       H  0.47518124  0.91629690  0.28943113     0.17800
H2549       H  0.38439816  0.93859535  0.30880652     0.17800
N2550       N  0.40605837  0.97019222  0.27475538    -0.88900
H2551       H  0.47179288  0.88125544  0.31588513     0.35200
H2552       H  0.44251503  0.86759606  0.31702303     0.40300
H2553       H  0.39896958  0.98216991  0.28922448     0.39900
H2554       H  0.39034376  0.96341530  0.26409292     0.34800
C2555       C  0.58026462  0.95570122  0.30288519    -0.27000
C2556       C  0.56596209  0.94561493  0.28238670    -0.15000
C2557       C  0.56799615  0.91930816  0.27614539     0.35600
C2558       C  0.58317053  0.90326360  0.29192196    -0.26400
C2559       C  0.59567606  0.91324277  0.31383885    -0.15700
C2560       C  0.59497000  0.93989650  0.31860203     0.36700
N2561       N  0.60874173  0.95103255  0.33975226    -0.89900
H2562       H  0.57909622  0.97600573  0.30753265     0.17800
H2563       H  0.58391139  0.88277356  0.28805810     0.17800
N2564       N  0.55375196  0.90882501  0.25487382    -0.88900
H2565       H  0.59548667  0.96022826  0.35177789     0.35200
H2566       H  0.62130866  0.96502388  0.33241660     0.40300
H2567       H  0.53414589  0.91068377  0.25908684     0.39900
H2568       H  0.55726926  0.88912218  0.25310242     0.34800
C2569       C  0.48218540  0.89524229  0.18376784    -0.27000
C2570       C  0.50609486  0.88278811  0.18495089    -0.15000
C2571       C  0.52866687  0.89794001  0.18653840     0.35600
C2572       C  0.52680237  0.92480791  0.18925466    -0.26400
C2573       C  0.50273212  0.93698458  0.19045032    -0.15700
C2574       C  0.48022186  0.92206717  0.18640310     0.36700
N2575       N  0.45530992  0.93404104  0.18606898    -0.89900
H2576       H  0.46472902  0.88392396  0.18188664     0.17800
H2577       H  0.54426590  0.93590671  0.19212282     0.17800
N2578       N  0.55353046  0.88617437  0.18574556    -0.88900
H2579       H  0.44076342  0.92034484  0.18340939     0.35200
H2580       H  0.45477453  0.94632820  0.17009163     0.40300
H2581       H  0.56330330  0.89095752  0.20267511     0.39900
H2582       H  0.56372653  0.89409240  0.17024479     0.34800
C2583       C  0.56307204  0.71073937  0.20611303    -0.27000
C2584       C  0.56494878  0.73095628  0.18804173    -0.15000
C2585       C  0.58340184  0.72904143  0.16803508     0.35600
C2586       C  0.59862019  0.70689580  0.16619055    -0.26400
C2587       C  0.59551575  0.68623632  0.18350816    -0.15700
C2588       C  0.57779412  0.68855258  0.20397154     0.36700
N2589       N  0.57433632  0.66882766  0.22304838    -0.89900
H2590       H  0.54945842  0.71170054  0.22192367     0.17800
H2591       H  0.61202737  0.70530007  0.15025593     0.17800
N2592       N  0.58704466  0.74891366  0.14922085    -0.88900
H2593       H  0.59233275  0.66415365  0.23076009     0.35200
H2594       H  0.56624503  0.65255096  0.21452660     0.40300
H2595       H  0.59141304  0.76603395  0.15863314     0.39900
H2596       H  0.56980033  0.75105630  0.13892130     0.34800
C2597       C  0.42902234  0.68465455  0.19683687    -0.27000
C2598       C  0.40841553  0.68897664  0.17990169    -0.15000
C2599       C  0.40560609  0.71367302  0.16884659     0.35600
C2600       C  0.42359844  0.73308544  0.17425950    -0.26400
C2601       C  0.44476141  0.72858621  0.19044681    -0.15700
C2602       C  0.44722525  0.70395514  0.20206404     0.36700
N2603       N  0.46778658  0.69785196  0.21933620    -0.89900
H2604       H  0.43171990  0.66575293  0.20527866     0.17800
H2605       H  0.42111197  0.75177715  0.16529199     0.17800
N2606       N  0.38462641  0.71917210  0.15186330    -0.88900
H2607       H  0.46762489  0.71098179  0.23453750     0.35200
H2608       H  0.48527038  0.69930385  0.20938060     0.40300
H2609       H  0.39226374  0.72504119  0.13412604     0.39900
H2610       H  0.37424758  0.73456204  0.15955790     0.34800
C2611       C  0.42088242  0.82556598  0.25841964    -0.27000
C2612       C  0.44361007  0.81162014  0.26232570    -0.15000
C2613       C  0.44896464  0.80210647  0.28730752     0.35600
C2614       C  0.43151334  0.80617489  0.30754591    -0.26400
C2615       C  0.40882604  0.82019429  0.30376849    -0.15700
C2616       C  0.40353988  0.82994624  0.27884301     0.36700
N2617       N  0.38050351  0.84422255  0.27410984    -0.89900
H2618       H  0.41631794  0.83275638  0.23936499     0.17800
H2619       H  0.43644932  0.79934430  0.32664530     0.17800
N2620       N  0.47262835  0.78901700  0.29249202    -0.88900
H2621       H  0.37010801  0.83475546  0.25971258     0.35200
H2622       H  0.38576713  0.86240687  0.26711931     0.40300
H2623       H  0.46819467  0.77075385  0.29982700     0.39900
H2624       H  0.48249713  0.79925050  0.30674795     0.34800
C2625       C  0.60326773  0.82237607  0.28290046    -0.27000
C2626       C  0.59883760  0.80716352  0.30492173    -0.15000
C2627       C  0.57882025  0.78881251  0.30457344     0.35600
C2628       C  0.56202724  0.78781465  0.28359058    -0.26400
C2629       C  0.56529084  0.80419083  0.26227673    -0.15700
C2630       C  0.58694178  0.82084946  0.26148167     0.36700
N2631       N  0.59225817  0.83716607  0.23981000    -0.89900
H2632       H  0.61865528  0.83653419  0.28281561     0.17800
H2633       H  0.54634843  0.77397494  0.28397121     0.17800
N2634       N  0.57553437  0.77106339  0.32550622    -0.88900
H2635       H  0.57602825  0.84834307  0.23606334     0.35200
H2636       H  0.59605454  0.82559619  0.22379168     0.40300
H2637       H  0.57738649  0.75239356  0.31815322     0.39900
H2638       H  0.55684094  0.77285016  0.33256945     0.34800
C2639       C  0.48145814  0.07843108  0.19470915    -0.27000
C2640       C  0.50564857  0.06650760  0.19624373    -0.15000
C2641       C  0.52802612  0.08182565  0.19357820     0.35600
C2642       C  0.52590137  0.10859651  0.19108419    -0.26400
C2643       C  0.50179937  0.12067525  0.19102660    -0.15700
C2644       C  0.47934487  0.10529430  0.19219666     0.36700
N2645       N  0.45437675  0.11687939  0.19214629    -0.89900
H2646       H  0.46404663  0.06709269  0.19703887     0.17800
H2647       H  0.54334339  0.12003132  0.18959858     0.17800
N2648       N  0.55305788  0.07037050  0.19388993    -0.88900
H2649       H  0.44495674  0.11167801  0.20919691     0.35200
H2650       H  0.44395885  0.10919424  0.17672439     0.40300
H2651       H  0.56348061  0.07846495  0.20908507     0.39900
H2652       H  0.56240225  0.07518738  0.17666895     0.34800
C2653       C  0.59466327  0.17705183  0.28280486    -0.27000
C2654       C  0.59201845  0.19014715  0.30639014    -0.15000
C2655       C  0.57226180  0.20879724  0.30867845     0.35600
C2656       C  0.55491545  0.21247080  0.28836311    -0.26400
C2657       C  0.55701041  0.19844245  0.26537785    -0.15700
C2658       C  0.57748308  0.18098036  0.26246391     0.36700
N2659       N  0.58041903  0.16643572  0.23920818    -0.89900
H2660       H  0.60969303  0.16286087  0.28030341     0.17800
H2661       H  0.53974066  0.22656134  0.29053773     0.17800
N2662       N  0.56892315  0.22403515  0.33136139    -0.88900
H2663       H  0.57955274  0.14684508  0.24391018     0.35200
H2664       H  0.59868537  0.17033099  0.23164517     0.40300
H2665       H  0.58585071  0.23434042  0.33470152     0.39900
H2666       H  0.56536615  0.21172076  0.34694423     0.34800
C2667       C  0.40176492  0.16846665  0.28394707    -0.27000
C2668       C  0.40452779  0.18372505  0.30614757    -0.15000
C2669       C  0.42192605  0.20460141  0.30586957     0.35600
C2670       C  0.43714887  0.20897876  0.28410530    -0.26400
C2671       C  0.43540761  0.19321751  0.26218441    -0.15700
C2672       C  0.41708202  0.17302882  0.26195177     0.36700
N2673       N  0.41400650  0.15709187  0.23966897    -0.89900
H2674       H  0.38862769  0.15219468  0.28409105     0.17800
H2675       H  0.45087608  0.22472425  0.28459861     0.17800
N2676       N  0.42451031  0.22098482  0.32805093    -0.88900
H2677       H  0.39489252  0.15859031  0.23350011     0.35200
H2678       H  0.41715235  0.13801405  0.24513604     0.40300
H2679       H  0.40704663  0.23046763  0.33062285     0.39900
H2680       H  0.43848465  0.23526363  0.32490104     0.34800
C2681       C  0.41866154  0.27053083  0.17001482    -0.27000
C2682       C  0.43860157  0.27413286  0.18787656    -0.15000
C2683       C  0.44117468  0.29830992  0.20006035     0.35600
C2684       C  0.42419896  0.31833746  0.19394712    -0.26400
C2685       C  0.40489651  0.31508810  0.17535020    -0.15700
C2686       C  0.40211431  0.29078395  0.16337357     0.36700
N2687       N  0.38278285  0.28660998  0.14416582    -0.89900
H2688       H  0.41632484  0.25208888  0.16053165     0.17800
H2689       H  0.42700222  0.33693337  0.20298969     0.17800
N2690       N  0.46097108  0.30270579  0.21872526    -0.88900
H2691       H  0.37101067  0.27138511  0.15026976     0.35200
H2692       H  0.39195565  0.28101116  0.12712965     0.40300
H2693       H  0.45222130  0.30819310  0.23600289     0.39900
H2694       H  0.47238364  0.31807798  0.21232247     0.34800
C2695       C  0.57987725  0.26862535  0.16981497    -0.27000
C2696       C  0.55969890  0.27227381  0.18738880    -0.15000
C2697       C  0.55825422  0.29590597  0.20098343     0.35600
C2698       C  0.57670886  0.31528072  0.19638053    -0.26400
C2699       C  0.59637878  0.31197517  0.17816201    -0.15700
C2700       C  0.59830667  0.28803049  0.16518770     0.36700
N2701       N  0.61881530  0.28353136  0.14712287    -0.89900
H2702       H  0.58144902  0.25042090  0.15977225     0.17800
H2703       H  0.57480623  0.33363755  0.20607767     0.17800
N2704       N  0.53759597  0.30057639  0.21883917    -0.88900
H2705       H  0.61725696  0.26517097  0.13902553     0.35200
H2706       H  0.63609132  0.28389230  0.15741453     0.40300
H2707       H  0.52050546  0.30109022  0.20825666     0.39900
H2708       H  0.53957757  0.31866148  0.22744926     0.34800
C2709       C  0.52037668  0.19842067  0.07085772    -0.27000
C2710       C  0.49778778  0.20350724  0.05705801    -0.15000
C2711       C  0.47415095  0.20449091  0.07048130     0.35600
C2712       C  0.47387108  0.20218212  0.09745726    -0.26400
C2713       C  0.49680732  0.19903845  0.11140931    -0.15700
C2714       C  0.52019892  0.19643059  0.09772064     0.36700
N2715       N  0.54413298  0.19312642  0.11095637    -0.89900
H2716       H  0.53869350  0.19758482  0.06086159     0.17800
H2717       H  0.45566542  0.20372459  0.10754411     0.17800
N2718       N  0.45057837  0.20933559  0.05711260    -0.88900
H2719       H  0.55624869  0.20853098  0.10609868     0.35200
H2720       H  0.55262841  0.17615900  0.10433163     0.40300
H2721       H  0.44237309  0.22599852  0.06481077     0.39900
H2722       H  0.43800851  0.19399286  0.06085059     0.34800
C2723       C  0.46035283  0.31358368  0.06405440    -0.27000
C2724       C  0.44583084  0.29474347  0.05155141    -0.15000
C2725       C  0.41903387  0.29351210  0.05523057     0.35600
C2726       C  0.40697675  0.31300561  0.06964512    -0.26400
C2727       C  0.42139591  0.33362381  0.07990960    -0.15700
C2728       C  0.44855607  0.33303800  0.07804708     0.36700
N2729       N  0.46439906  0.35265941  0.08933211    -0.89900
H2730       H  0.48103316  0.31437386  0.06126906     0.17800
H2731       H  0.38624278  0.31268910  0.07183202     0.17800
N2732       N  0.40416354  0.27331493  0.04347850    -0.88900
H2733       H  0.47487628  0.36164457  0.07461015     0.35200
H2734       H  0.47750941  0.34378354  0.10172169     0.40300
H2735       H  0.40551736  0.27554438  0.02346394     0.39900
H2736       H  0.38474320  0.27519258  0.04820416     0.34800
C2737       C  0.54723575  0.30671545  0.06912788    -0.27000
C2738       C  0.55837039  0.29718629  0.04645703    -0.15000
C2739       C  0.58447260  0.30278481  0.04114844     0.35600
C2740       C  0.59834950  0.31926300  0.05766092    -0.26400
C2741       C  0.58634884  0.33044042  0.07914608    -0.15700
C2742       C  0.56092193  0.32316133  0.08544198     0.36700
N2743       N  0.54876281  0.33277034  0.10829159    -0.89900
H2744       H  0.52738319  0.30214925  0.07375916     0.17800
H2745       H  0.61797829  0.32451646  0.05280801     0.17800
N2746       N  0.59644431  0.29318892  0.01824879    -0.88900
H2747       H  0.54326027  0.31704186  0.11967705     0.35200
H2748       H  0.53212247  0.34263599  0.10288069     0.40300
H2749       H  0.61263653  0.28263137  0.02368709     0.39900
H2750       H  0.60270927  0.30895055  0.00730070     0.34800
C2751       C  0.56388141  0.31697458  0.89829376    -0.27000
C2752       C  0.58872213  0.32474894  0.90560450    -0.15000
C2753       C  0.60005512  0.31422544  0.92790986     0.35600
C2754       C  0.58527601  0.29771765  0.94361884    -0.26400
C2755       C  0.55976815  0.29171146  0.93713832    -0.15700
C2756       C  0.54924182  0.30079686  0.91407060     0.36700
N2757       N  0.52307583  0.29506572  0.90755226    -0.89900
H2758       H  0.55518189  0.32479718  0.88100536     0.17800
H2759       H  0.59305506  0.29079987  0.96168807     0.17800
N2760       N  0.62549723  0.32192687  0.93559492    -0.88900
H2761       H  0.52295081  0.28603024  0.88956268     0.35200
H2762       H  0.51325063  0.31250400  0.90577489     0.40300
H2763       H  0.63839017  0.31458139  0.92200549     0.39900
H2764       H  0.63031382  0.31346961  0.95322207     0.34800
C2765       C  0.40073298  0.32083243  0.92986432    -0.27000
C2766       C  0.41142173  0.32833938  0.90623113    -0.15000
C2767       C  0.43570641  0.31898379  0.89878955     0.35600
C2768       C  0.44982073  0.30388233  0.91588682    -0.26400
C2769       C  0.44013608  0.29795882  0.94037597    -0.15700
C2770       C  0.41493115  0.30587083  0.94715008     0.36700
N2771       N  0.40393578  0.30051649  0.97192501    -0.89900
H2772       H  0.38206089  0.32806837  0.93564617     0.17800
H2773       H  0.46877234  0.29736397  0.91026327     0.17800
N2774       N  0.44629554  0.32529280  0.87403071    -0.88900
H2775       H  0.41619599  0.30789853  0.98613957     0.35200
H2776       H  0.40240432  0.28061166  0.97416961     0.40300
H2777       H  0.45013238  0.30809424  0.86433896     0.39900
H2778       H  0.46378802  0.33490448  0.87685416     0.34800
C2779       C  0.52175679  0.20005934  0.88769132    -0.27000
C2780       C  0.49893752  0.19721632  0.87345914    -0.15000
C2781       C  0.47517917  0.19619819  0.88690889     0.35600
C2782       C  0.47479238  0.19984208  0.91375769    -0.26400
C2783       C  0.49750659  0.20425108  0.92773409    -0.15700
C2784       C  0.52127166  0.20336530  0.91456126     0.36700
N2785       N  0.54497263  0.20705593  0.92810060    -0.89900
H2786       H  0.54017433  0.20030670  0.87786060     0.17800
H2787       H  0.45644356  0.20035591  0.92370041     0.17800
N2788       N  0.45138582  0.19243593  0.87331706    -0.88900
H2789       H  0.55445567  0.22296769  0.92004754     0.35200
H2790       H  0.55642100  0.19084402  0.92504001     0.40300
H2791       H  0.44848286  0.20870431  0.86185499     0.39900
H2792       H  0.43585605  0.19157170  0.88612741     0.34800
C2793       C  0.45258338  0.20446454  0.69305754    -0.27000
C2794       C  0.44279162  0.19775566  0.71733959    -0.15000
C2795       C  0.41681611  0.18952197  0.71938626     0.35600
C2796       C  0.40144080  0.18841029  0.69708549    -0.26400
C2797       C  0.41148614  0.19489839  0.67275093    -0.15700
C2798       C  0.43743962  0.20315920  0.67097805     0.36700
N2799       N  0.44894043  0.20982821  0.64671705    -0.89900
H2800       H  0.47233805  0.21092135  0.69096155     0.17800
H2801       H  0.38180344  0.18148676  0.69863749     0.17800
N2802       N  0.40615644  0.18198038  0.74386122    -0.88900
H2803       H  0.46465120  0.19768850  0.64362338     0.35200
H2804       H  0.45579583  0.22875638  0.64785844     0.40300
H2805       H  0.41553243  0.16516470  0.74963860     0.39900
H2806       H  0.38667681  0.17717770  0.74203872     0.34800
C2807       C  0.59696716  0.17319837  0.70020451    -0.27000
C2808       C  0.59369542  0.18858383  0.67810925    -0.15000
C2809       C  0.57557564  0.20874821  0.67873226     0.35600
C2810       C  0.56028018  0.21214999  0.70072796    -0.26400
C2811       C  0.56254136  0.19600359  0.72243029    -0.15700
C2812       C  0.58151550  0.17665244  0.72224788     0.36700
N2813       N  0.58510843  0.16034899  0.74420778    -0.89900
H2814       H  0.61071728  0.15756728  0.69997021     0.17800
H2815       H  0.54606388  0.22734719  0.70059991     0.17800
N2816       N  0.57239457  0.22545414  0.65683196    -0.88900
H2817       H  0.60416091  0.16236866  0.75034068     0.35200
H2818       H  0.58239282  0.14126703  0.73836873     0.40300
H2819       H  0.58957029  0.23576261  0.65441603     0.39900
H2820       H  0.55799959  0.23903225  0.66025327     0.34800
C2821       C  0.55623592  0.29561792  0.78299993    -0.27000
C2822       C  0.55744103  0.27313665  0.79801453    -0.15000
C2823       C  0.57677386  0.27076277  0.81675359     0.35600
C2824       C  0.59444248  0.29076386  0.82026674    -0.26400
C2825       C  0.59313134  0.31362029  0.80571417    -0.15700
C2826       C  0.57399874  0.31585220  0.78646190     0.36700
N2827       N  0.57209443  0.33878427  0.77103285    -0.89900
H2828       H  0.54158720  0.29726149  0.76826736     0.17800
H2829       H  0.60871690  0.28864751  0.83530567     0.17800
N2830       N  0.57797659  0.24843944  0.83298692    -0.88900
H2831       H  0.55635182  0.33762694  0.75857458     0.35200
H2832       H  0.58849343  0.33968127  0.75935414     0.40300
H2833       H  0.57615272  0.25443512  0.85213296     0.39900
H2834       H  0.59613124  0.24013520  0.83075832     0.34800
C2835       C  0.42992726  0.28558691  0.77862466    -0.27000
C2836       C  0.43554651  0.26760319  0.79823573    -0.15000
C2837       C  0.42342361  0.27037581  0.82240303     0.35600
C2838       C  0.40760311  0.29172967  0.82683162    -0.26400
C2839       C  0.40300763  0.31048473  0.80767716    -0.15700
C2840       C  0.41389120  0.30677103  0.78299379     0.36700
N2841       N  0.40908076  0.32393005  0.76193259    -0.89900
H2842       H  0.43837049  0.28347435  0.75964589     0.17800
H2843       H  0.39932229  0.29394222  0.84586290     0.17800
N2844       N  0.42742740  0.25187346  0.84260252    -0.88900
H2845       H  0.41668245  0.34206925  0.76632593     0.35200
H2846       H  0.38921046  0.32537869  0.75935546     0.40300
H2847       H  0.41816164  0.23487193  0.83701999     0.39900
H2848       H  0.41848310  0.25770259  0.85968283     0.34800
C2849       C  0.52172003  0.79601906  0.06706678    -0.27000
C2850       C  0.49807097  0.79093635  0.05497612    -0.15000
C2851       C  0.47549182  0.79042817  0.07027748     0.35600
C2852       C  0.47707293  0.79398207  0.09699362    -0.26400
C2853       C  0.50075955  0.79808529  0.10928060    -0.15700
C2854       C  0.52339750  0.79935481  0.09397928     0.36700
N2855       N  0.54815786  0.80314827  0.10570824    -0.89900
H2856       H  0.53922843  0.79600602  0.05569933     0.17800
H2857       H  0.45947756  0.79322969  0.10822100     0.17800
N2858       N  0.45078788  0.78578774  0.05893587    -0.88900
H2859       H  0.56259206  0.80395162  0.09185219     0.35200
H2860       H  0.55193655  0.78677208  0.11703787     0.40300
H2861       H  0.44288692  0.76926626  0.06743840     0.39900
H2862       H  0.43887485  0.80135993  0.06330745     0.34800
C2863       C  0.57856500  0.68179852  0.03490770    -0.27000
C2864       C  0.56363616  0.70225500  0.04417224    -0.15000
C2865       C  0.56486351  0.70886142  0.07041434     0.35600
C2866       C  0.57956491  0.69362019  0.08728293    -0.26400
C2867       C  0.59296291  0.67194202  0.07813004    -0.15700
C2868       C  0.59326245  0.66676088  0.05153008     0.36700
N2869       N  0.60835109  0.64610611  0.04128991    -0.89900
H2870       H  0.57830218  0.67695268  0.01460526     0.17800
H2871       H  0.57942501  0.69797169  0.10769570     0.17800
N2872       N  0.55024475  0.73005044  0.08016189    -0.88900
H2873       H  0.62125174  0.65383548  0.02782537     0.35200
H2874       H  0.59601585  0.63346204  0.03161190     0.40300
H2875       H  0.56299562  0.74296284  0.08886763     0.39900
H2876       H  0.53772880  0.72304872  0.09437978     0.34800
C2877       C  0.45075630  0.69704336  0.06629187    -0.27000
C2878       C  0.44212201  0.70075002  0.04102259    -0.15000
C2879       C  0.41698168  0.69277477  0.03435991     0.35600
C2880       C  0.40200308  0.67884097  0.05227384    -0.26400
C2881       C  0.41170610  0.67318572  0.07680862    -0.15700
C2882       C  0.43565295  0.68384610  0.08431473     0.36700
N2883       N  0.44500982  0.68168700  0.11019400    -0.89900
H2884       H  0.46960004  0.70404867  0.07193915     0.17800
H2885       H  0.38355083  0.67103132  0.04642036     0.17800
N2886       N  0.40718375  0.69741586  0.00902393    -0.88900
H2887       H  0.44769811  0.66232704  0.11480551     0.35200
H2888       H  0.43111548  0.68926060  0.12261065     0.40300
H2889       H  0.39035939  0.70823482  0.01082192     0.39900
H2890       H  0.40217884  0.67966328  0.00095086     0.34800
C2891       C  0.42800629  0.68224858  0.94456757    -0.27000
C2892       C  0.44226728  0.70272777  0.93417456    -0.15000
C2893       C  0.43863057  0.70983596  0.90818648     0.35600
C2894       C  0.42163677  0.69511080  0.89284984    -0.26400
C2895       C  0.40835547  0.67375052  0.90327668    -0.15700
C2896       C  0.41109364  0.66795244  0.92964228     0.36700
N2897       N  0.39705969  0.64719385  0.94142920    -0.89900
H2898       H  0.43041711  0.67676560  0.96455364     0.17800
H2899       H  0.41965171  0.69959287  0.87255043     0.17800
N2900       N  0.45316810  0.73073648  0.89714757    -0.88900
H2901       H  0.38619693  0.65468622  0.95662879     0.35200
H2902       H  0.41030422  0.63418001  0.94911308     0.40300
H2903       H  0.44691502  0.74772609  0.90588432     0.39900
H2904       H  0.44904689  0.73261072  0.87752888     0.34800
C2905       C  0.55356967  0.69821347  0.91157292    -0.27000
C2906       C  0.56332843  0.70276407  0.93630136    -0.15000
C2907       C  0.58782736  0.69330530  0.94316497     0.35600
C2908       C  0.60086270  0.67710235  0.92593037    -0.26400
C2909       C  0.58967540  0.67054453  0.90232455    -0.15700
C2910       C  0.56663668  0.68219932  0.89449520     0.36700
N2911       N  0.55610242  0.67701806  0.86951789    -0.89900
H2912       H  0.53502044  0.70593363  0.90605284     0.17800
H2913       H  0.61877057  0.66813782  0.93164562     0.17800
N2914       N  0.59827325  0.69829442  0.96829137    -0.88900
H2915       H  0.55418585  0.69454887  0.85977529     0.35200
H2916       H  0.53773161  0.66907784  0.87195511     0.40300
H2917       H  0.60257828  0.71797227  0.96923565     0.39900
H2918       H  0.61568438  0.68862153  0.97074337     0.34800
C2919       C  0.52736259  0.79806010  0.88232975    -0.27000
C2920       C  0.50331432  0.79969784  0.87015311    -0.15000
C2921       C  0.48077980  0.79945097  0.88558953     0.35600
C2922       C  0.48291617  0.79612646  0.91246819    -0.26400
C2923       C  0.50696420  0.79295196  0.92439597    -0.15700
C2924       C  0.52941100  0.79468522  0.90903975     0.36700
N2925       N  0.55444426  0.79231377  0.92029734    -0.89900
H2926       H  0.54488060  0.79874271  0.87097288     0.17800
H2927       H  0.46554375  0.79461581  0.92395258     0.17800
N2928       N  0.45574793  0.80112855  0.87397379    -0.88900
H2929       H  0.56497117  0.80896011  0.91587984     0.35200
H2930       H  0.56368434  0.77665503  0.91170712     0.40300
H2931       H  0.45363383  0.81993977  0.86708588     0.39900
H2932       H  0.44129580  0.79849157  0.88777309     0.34800
C2933       C  0.41606877  0.72836547  0.80515584    -0.27000
C2934       C  0.44139192  0.72567536  0.79625473    -0.15000
C2935       C  0.45074957  0.70107278  0.79012556     0.35600
C2936       C  0.43460895  0.67964193  0.79228320    -0.26400
C2937       C  0.40906385  0.68201060  0.80092188    -0.15700
C2938       C  0.39980925  0.70673859  0.80757362     0.36700
N2939       N  0.37414488  0.71003294  0.81706728    -0.89900
H2940       H  0.40870521  0.74732947  0.80967210     0.17800
H2941       H  0.44250579  0.66091528  0.78768707     0.17800
N2942       N  0.47695340  0.69772903  0.78215545    -0.88900
H2943       H  0.36465179  0.72290446  0.80488353     0.35200
H2944       H  0.37525240  0.71837215  0.83536072     0.40300
H2945       H  0.47696317  0.68900249  0.76401879     0.39900
H2946       H  0.48584024  0.68519067  0.79513901     0.34800
C2947       C  0.55743002  0.70322507  0.77712235    -0.27000
C2948       C  0.55933467  0.72560590  0.79219951    -0.15000
C2949       C  0.57853943  0.72716709  0.81116906     0.35600
C2950       C  0.59483821  0.70616596  0.81533836    -0.26400
C2951       C  0.59233950  0.68321953  0.80104447    -0.15700
C2952       C  0.57383878  0.68217789  0.78120195     0.36700
N2953       N  0.57117197  0.65971140  0.76547064    -0.89900
H2954       H  0.54305801  0.70200421  0.76206423     0.17800
H2955       H  0.60886730  0.70758205  0.83069125     0.17800
N2956       N  0.58083459  0.74957795  0.82707847    -0.88900
H2957       H  0.57424441  0.66516540  0.74631733     0.35200
H2958       H  0.55219121  0.65315978  0.76706380     0.40300
H2959       H  0.59950798  0.75688700  0.82501590     0.39900
H2960       H  0.57836336  0.74391630  0.84627325     0.34800
C2961       C  0.58337146  0.81898054  0.71971675    -0.27000
C2962       C  0.56035715  0.80489826  0.71720210    -0.15000
C2963       C  0.55400612  0.79419955  0.69301346     0.35600
C2964       C  0.57090799  0.79720146  0.67223210    -0.26400
C2965       C  0.59368225  0.81174239  0.67429541    -0.15700
C2966       C  0.60000327  0.82260887  0.69845672     0.36700
N2967       N  0.62285231  0.83780573  0.70143074    -0.89900
H2968       H  0.58854238  0.82706919  0.73823381     0.17800
H2969       H  0.56549811  0.78896546  0.65385314     0.17800
N2970       N  0.52991136  0.78092394  0.68938045    -0.88900
H2971       H  0.63404435  0.82938869  0.71586262     0.35200
H2972       H  0.61744770  0.85614043  0.70768447     0.40300
H2973       H  0.52827828  0.77397650  0.67050409     0.39900
H2974       H  0.51525283  0.79438230  0.69174299     0.34800
C2975       C  0.44702749  0.78642278  0.69237294    -0.27000
C2976       C  0.44080726  0.79855560  0.71565318    -0.15000
C2977       C  0.41743227  0.81224207  0.71744301     0.35600
C2978       C  0.40134785  0.81431625  0.69572719    -0.26400
C2979       C  0.40811304  0.80286751  0.67214492    -0.15700
C2980       C  0.43098740  0.78820770  0.67087810     0.36700
N2981       N  0.43836400  0.77531412  0.64762583    -0.89900
H2982       H  0.46453358  0.77526425  0.69072546     0.17800
H2983       H  0.38416592  0.82599250  0.69704238     0.17800
N2984       N  0.41034274  0.82482332  0.74092082    -0.88900
H2985       H  0.44026395  0.75568702  0.65169008     0.35200
H2986       H  0.45637769  0.78240014  0.64192399     0.40300
H2987       H  0.39245217  0.81757149  0.74675147     0.39900
H2988       H  0.40824905  0.84447969  0.73707358     0.34800
C2989       C  0.47498505  0.10495954  0.78898996    -0.27000
C2990       C  0.49840069  0.11838942  0.79119017    -0.15000
C2991       C  0.52167622  0.10433682  0.79156667     0.35600
C2992       C  0.52090931  0.07740891  0.78915358    -0.26400
C2993       C  0.49755530  0.06412641  0.78567606    -0.15700
C2994       C  0.47434722  0.07811572  0.78614345     0.36700
N2995       N  0.45012255  0.06544008  0.78234003    -0.89900
H2996       H  0.45697053  0.11539661  0.78887079     0.17800
H2997       H  0.53884627  0.06685258  0.78855535     0.17800
N2998       N  0.54608145  0.11740702  0.79319206    -0.88900
H2999       H  0.44134518  0.07355221  0.76614741     0.35200
H3000       H  0.43847448  0.06923169  0.79832011     0.40300
H3001       H  0.54842964  0.12811891  0.77627223     0.39900
H3002       H  0.56121236  0.10419072  0.79363857     0.34800
C3003       C  0.40084723  0.06371057  0.66498400    -0.27000
C3004       C  0.40686623  0.08984659  0.66756415    -0.15000
C3005       C  0.42438887  0.09776382  0.68669966     0.35600
C3006       C  0.43708703  0.07908746  0.70164555    -0.26400
C3007       C  0.43249650  0.05273350  0.69750953    -0.15700
C3008       C  0.41331032  0.04518430  0.67971800     0.36700
N3009       N  0.40575148  0.01885571  0.67644359    -0.89900
H3010       H  0.38681634  0.05753907  0.65082492     0.17800
H3011       H  0.45162321  0.08512026  0.71533717     0.17800
N3012       N  0.43046860  0.12450508  0.68988191    -0.88900
H3013       H  0.40052616  0.01159114  0.69451220     0.35200
H3014       H  0.42118359  0.00833527  0.66913520     0.40300
H3015       H  0.45020341  0.12698383  0.68670871     0.39900
H3016       H  0.42654326  0.12951850  0.70897960     0.34800
C3017       C  0.56582269  0.06505586  0.64657181    -0.27000
C3018       C  0.58313144  0.08176336  0.65887405    -0.15000
C3019       C  0.58480008  0.08142427  0.68610595     0.35600
C3020       C  0.56852918  0.06480640  0.70027935    -0.26400
C3021       C  0.55064644  0.04888947  0.68772775    -0.15700
C3022       C  0.54972050  0.04878532  0.66052293     0.36700
N3023       N  0.53315399  0.03181776  0.64635914    -0.89900
H3024       H  0.56434793  0.06484565  0.62574663     0.17800
H3025       H  0.56953149  0.06450784  0.72113223     0.17800
N3026       N  0.60291081  0.09774506  0.69923263    -0.88900
H3027       H  0.51399862  0.03653538  0.65011932     0.35200
H3028       H  0.53661101  0.01287854  0.65223121     0.40300
H3029       H  0.62137365  0.09164240  0.69414232     0.39900
H3030       H  0.60134239  0.09537236  0.71919248     0.34800
C3031       C  0.51671479  0.89398183  0.79550341    -0.27000
C3032       C  0.49426275  0.87916907  0.79175737    -0.15000
C3033       C  0.47058600  0.89231444  0.78860184     0.35600
C3034       C  0.47033657  0.91914681  0.78713129    -0.26400
C3035       C  0.49313061  0.93386290  0.78793921    -0.15700
C3036       C  0.51646786  0.92097239  0.79356442     0.36700
N3037       N  0.54034124  0.93444277  0.79677215    -0.89900
H3038       H  0.53493780  0.88451470  0.79890424     0.17800
H3039       H  0.45200817  0.92840406  0.78366799     0.17800
N3040       N  0.44634596  0.87922442  0.78644607    -0.88900
H3041       H  0.53801091  0.94830378  0.81114480     0.35200
H3042       H  0.54530049  0.94345645  0.77943324     0.40300
H3043       H  0.44379337  0.86727661  0.80247862     0.39900
H3044       H  0.44615114  0.86832478  0.76953133     0.34800
C3045       C  0.57311726  0.90435928  0.68457691    -0.27000
C3046       C  0.58599569  0.91515996  0.66320605    -0.15000
C3047       C  0.58563899  0.94200382  0.65936077     0.35600
C3048       C  0.57048942  0.95723140  0.67546002    -0.26400
C3049       C  0.55582500  0.94627291  0.69541639    -0.15700
C3050       C  0.55789850  0.91981563  0.70074036     0.36700
N3051       N  0.54352315  0.90844021  0.72143983    -0.89900
H3052       H  0.57368236  0.88374136  0.68785904     0.17800
H3053       H  0.56943721  0.97778649  0.67188700     0.17800
N3054       N  0.60029725  0.95363055  0.63883541    -0.88900
H3055       H  0.55649216  0.89939850  0.73383245     0.35200
H3056       H  0.53143837  0.89426126  0.71372331     0.40300
H3057       H  0.61977858  0.95048969  0.64273948     0.39900
H3058       H  0.59771648  0.97358163  0.63855887     0.34800
C3059       C  0.41184841  0.94847467  0.68955637    -0.27000
C3060       C  0.43555811  0.94141578  0.70010604    -0.15000
C3061       C  0.44436028  0.91583452  0.69737892     0.35600
C3062       C  0.43045479  0.89866049  0.68206994    -0.26400
C3063       C  0.40864063  0.90700449  0.66873328    -0.15700
C3064       C  0.39844800  0.93156303  0.67342651     0.36700
N3065       N  0.37504976  0.93943105  0.66108791    -0.89900
H3066       H  0.40472447  0.96776055  0.69233766     0.17800
H3067       H  0.43760734  0.87929740  0.67924739     0.17800
N3068       N  0.46738966  0.90695478  0.70961739    -0.88900
H3069       H  0.37029894  0.95824981  0.66635257     0.35200
H3070       H  0.36027103  0.92754254  0.66801342     0.40300
H3071       H  0.46586453  0.91051643  0.72937009     0.39900
H3072       H  0.48314977  0.91722542  0.70236918     0.34800
loop_ 
_geom_bond_atom_site_label_1 
_geom_bond_atom_site_label_2 
_geom_bond_distance 
_geom_bond_site_symmetry_2 
_ccdc_geom_bond_type 
O1          Cr19   2.003       .  S
O1            C9   1.265       .  A
O2          Cr19   1.990       .  S
O2            C3   1.258       .  A
C3            O4   1.260       .  A
C3         C3007   1.474       .  S
O4          Cr20   1.995   1_545  S
O5          Cr20   1.957   1_545  S
O5            C6   1.260       .  A
C6            O7   1.273       .  A
C6         C3021   1.471       .  S
O7          Cr21   2.027   1_545  S
O8          Cr21   1.958   1_545  S
O8            C9   1.256       .  A
C9         C2993   1.482       .  S
O10         Cr19   1.957   1_565  S
O10          C18   1.258       .  A
O11         Cr19   2.019   1_565  S
O11          C12   1.270       .  A
C12          O13   1.258       .  A
C12        C3060   1.463       .  S
O13         Cr20   1.957       .  S
O14         Cr20   1.982       .  S
O14          C15   1.258       .  A
C15          O16   1.257       .  A
C15        C3049   1.468       .  S
O16         Cr21   1.990       .  S
O17         Cr21   2.015       .  S
O17          C18   1.267       .  A
C18        C3035   1.494       .  S
Cr19         O22   1.773   1_545  S
Cr20         O22   1.753       .  S
Cr21         O22   1.775       .  S
O23         Cr41   1.976       .  S
O23          C31   1.262       .  A
O24         Cr41   2.017       .  S
O24          C25   1.269       .  A
C25          O26   1.260       .  A
C25        C2948   1.478       .  S
O26         Cr42   1.966       .  S
O27         Cr42   1.984       .  S
O27          C28   1.260       .  A
C28          O29   1.261       .  A
C28        C2934   1.469       .  S
O29         Cr43   1.987       .  S
O30         Cr43   2.009       .  S
O30          C31   1.265       .  A
C31        C2920   1.491       .  S
O32         Cr41   2.018       .  S
O32          C40   1.268       .  A
O33         Cr41   1.999       .  S
O33          C34   1.263       .  A
C34          O35   1.259       .  A
C34        C2962   1.483       .  S
O35         Cr42   1.985       .  S
O36         Cr42   1.969       .  S
O36          C37   1.262       .  A
C37          O38   1.267       .  A
C37        C2976   1.484       .  S
O38         Cr43   2.016       .  S
O39         Cr43   1.968       .  S
O39          C40   1.259       .  A
C40        C3032   1.493       .  S
Cr41         O44   1.778       .  S
Cr42         O44   1.767       .  S
Cr43         O44   1.778       .  S
O45         Cr63   2.010   1_554  S
O45          C53   1.268       .  A
O46         Cr63   1.989   1_554  S
O46          C47   1.259       .  A
C47          O48   1.260       .  A
C47        C2864   1.472       .  S
O48         Cr64   1.986   1_554  S
O49         Cr64   1.978   1_554  S
O49          C50   1.265       .  A
C50          O51   1.270       .  A
C50        C2878   1.478       .  S
O51         Cr65   2.022   1_554  S
O52         Cr65   1.960   1_554  S
O52          C53   1.256       .  A
C53        C2850   1.492       .  S
O54         Cr63   1.967       .  S
O54          C62   1.256       .  A
O55         Cr63   2.013       .  S
O55          C56   1.268       .  A
C56          O57   1.261       .  A
C56        C2906   1.465       .  S
O57         Cr64   1.962       .  S
O58         Cr64   1.980       .  S
O58          C59   1.261       .  A
C59          O60   1.258       .  A
C59        C2892   1.473       .  S
O60         Cr65   1.990       .  S
O61         Cr65   2.007       .  S
O61          C62   1.266       .  A
C62        C2923   1.491       .  S
Cr63         O66   1.777       .  S
Cr64         O66   1.751       .  S
Cr65         O66   1.774       .  S
O67         Cr85   2.006       .  S
O67          C75   1.265       .  A
O68         Cr85   1.988       .  S
O68          C69   1.263       .  A
C69          O70   1.262       .  A
C69        C2836   1.491       .  S
O70         Cr86   1.997       .  S
O71         Cr86   1.971       .  S
O71          C72   1.261       .  A
C72          O73   1.266       .  A
C72        C2822   1.474       .  S
O73         Cr87   2.000       .  S
O74         Cr87   1.985       .  S
O74          C75   1.263       .  A
C75        C2780   1.492       .  S
O76         Cr85   1.976       .  S
O76          C84   1.262       .  A
O77         Cr85   2.009       .  S
O77          C78   1.265       .  A
C78          O79   1.261       .  A
C78        C2794   1.485       .  S
O79         Cr86   1.967       .  S
O80         Cr86   1.988       .  S
O80          C81   1.261       .  A
C81          O82   1.264       .  A
C81        C2811   1.490       .  S
O82         Cr87   1.999       .  S
O83         Cr87   2.002       .  S
O83          C84   1.265       .  A
C84        C2990   1.484       .  S
Cr85         O88   1.774       .  S
Cr86         O88   1.767       .  S
Cr87         O88   1.774       .  S
O89        Cr107   2.014       .  S
O89          C97   1.269       .  A
O90        Cr107   1.972       .  S
O90          C91   1.255       .  A
C91          O92   1.260       .  A
C91        C2755   1.456       .  S
O92        Cr108   1.993       .  S
O93        Cr108   1.968       .  S
O93          C94   1.262       .  A
C94          O95   1.266       .  A
C94        C2769   1.470       .  S
O95        Cr109   2.009       .  S
O96        Cr109   1.966       .  S
O96          C97   1.259       .  A
C97        C2783   1.488       .  S
O98        Cr107   1.958   1_554  S
O98         C106   1.257       .  A
O99        Cr107   2.030   1_554  S
O99         C100   1.270       .  A
C100        O101   1.260       .  A
C100       C2738   1.480       .  S
O101       Cr108   1.964   1_554  S
O102       Cr108   1.981   1_554  S
O102        C103   1.260       .  A
C103        O104   1.258       .  A
C103       C2724   1.457       .  S
O104       Cr109   1.982   1_554  S
O105       Cr109   2.003   1_554  S
O105        C106   1.264       .  A
C106       C2710   1.479       .  S
Cr107       O110   1.774       .  S
Cr108       O110   1.754       .  S
Cr109       O110   1.780       .  S
O111       Cr129   1.995       .  S
O111        C119   1.262       .  A
O112       Cr129   1.993       .  S
O112        C113   1.265       .  A
C113        O114   1.262       .  A
C113       C2696   1.489       .  S
O114       Cr130   1.994       .  S
O115       Cr130   1.971       .  S
O115        C116   1.261       .  A
C116        O117   1.268       .  A
C116       C2682   1.484       .  S
O117       Cr131   2.014       .  S
O118       Cr131   1.980       .  S
O118        C119   1.261       .  A
C119       C2713   1.485       .  S
O120       Cr129   1.973       .  S
O120        C128   1.262       .  A
O121       Cr129   1.999       .  S
O121        C122   1.264       .  A
C122        O123   1.263       .  A
C122       C2657   1.480       .  S
O123       Cr130   1.982       .  S
O124       Cr130   1.987       .  S
O124        C125   1.262       .  A
C125        O126   1.260       .  A
C125       C2671   1.486       .  S
O126       Cr131   1.989       .  S
O127       Cr131   2.009       .  S
O127        C128   1.266       .  A
C128       C2643   1.483       .  S
Cr129       O132   1.772       .  S
Cr130       O132   1.770       .  S
Cr131       O132   1.782       .  S
O133       Cr151   1.980       .  S
O133        C141   1.262       .  A
O134       Cr151   2.010       .  S
O134        C135   1.265       .  A
C135        O136   1.262       .  A
C135       C2629   1.479       .  S
O136       Cr152   1.970       .  S
O137       Cr152   1.987       .  S
O137        C138   1.260       .  A
C138        O139   1.266       .  A
C138       C2612   1.488       .  S
O139       Cr153   2.005       .  S
O140       Cr153   2.005       .  S
O140        C141   1.267       .  A
C141       C2570   1.488       .  S
O142       Cr151   2.005       .  S
O142        C150   1.264       .  A
O143       Cr151   1.993       .  S
O143        C144   1.263       .  A
C144        O145   1.259       .  A
C144       C2584   1.485       .  S
O145       Cr152   1.978       .  S
O146       Cr152   1.979       .  S
O146        C147   1.261       .  A
C147        O148   1.267       .  A
C147       C2601   1.489       .  S
O148       Cr153   2.006       .  S
O149       Cr153   1.987       .  S
O149        C150   1.264       .  A
C150       C2853   1.494       .  S
Cr151       O154   1.782       .  S
Cr152       O154   1.769       .  S
Cr153       O154   1.774       .  S
O155       Cr173   1.955   1_565  S
O155        C163   1.255       .  A
O156       Cr173   2.010   1_565  S
O156        C157   1.268       .  A
C157        O158   1.263       .  A
C157       C2542   1.469       .  S
O158       Cr174   1.962       .  S
O159       Cr174   1.975       .  S
O159        C160   1.258       .  A
C160        O161   1.257       .  A
C160       C2556   1.467       .  S
O161       Cr175   1.991       .  S
O162       Cr175   2.012       .  S
O162        C163   1.268       .  A
C163       C2573   1.486       .  S
O164       Cr173   2.002       .  S
O164        C172   1.265       .  A
O165       Cr173   1.987       .  S
O165        C166   1.259       .  A
C166        O167   1.257       .  A
C166       C2528   1.464       .  S
O167       Cr174   1.975   1_545  S
O168       Cr174   1.967   1_545  S
O168        C169   1.263       .  A
C169        O170   1.272       .  A
C169       C2517   1.479       .  S
O170       Cr175   2.028   1_545  S
O171       Cr175   1.962   1_545  S
O171        C172   1.257       .  A
C172       C2640   1.484       .  S
Cr173       O176   1.776   1_545  S
Cr174       O176   1.750       .  S
Cr175       O176   1.774       .  S
O177       Cr195   1.966   1_554  S
O177        C185   1.256       .  A
O178       Cr195   2.012   1_554  S
O178        C179   1.269       .  A
C179        O180   1.261       .  A
C179       C2444   1.462       .  S
O180       Cr196   1.969   1_554  S
O181       Cr196   1.998   1_554  S
O181        C182   1.261       .  A
C182        O183   1.257       .  A
C182       C2458   1.463       .  S
O183       Cr197   1.984   1_554  S
O184       Cr197   2.005   1_554  S
O184        C185   1.266       .  A
C185       C2430   1.482       .  S
O186       Cr195   2.009       .  S
O186        C194   1.268       .  A
O187       Cr195   1.986       .  S
O187        C188   1.259       .  A
C188        O189   1.262       .  A
C188       C2500   1.470       .  S
O189       Cr196   1.994       .  S
O190       Cr196   1.960       .  S
O190        C191   1.259       .  A
C191        O192   1.268       .  A
C191       C2486   1.454       .  S
O192       Cr197   2.013       .  S
O193       Cr197   1.963       .  S
O193        C194   1.257       .  A
C194       C2472   1.485       .  S
Cr195       O198   1.770       .  S
Cr196       O198   1.755       .  S
Cr197       O198   1.772       .  S
O199       Cr217   2.017       .  S
O199        C207   1.268       .  A
O200       Cr217   1.980       .  S
O200        C201   1.259       .  A
C201        O202   1.260       .  A
C201       C2388   1.487       .  S
O202       Cr218   1.992       .  S
O203       Cr218   1.974       .  S
O203        C204   1.261       .  A
C204        O205   1.270       .  A
C204       C2374   1.492       .  S
O205       Cr219   2.019       .  S
O206       Cr219   1.983       .  S
O206        C207   1.263       .  A
C207       C2360   1.498       .  S
O208       Cr217   1.976       .  S
O208        C216   1.262       .  A
O209       Cr217   2.021       .  S
O209        C210   1.269       .  A
C210        O211   1.262       .  A
C210       C2402   1.484       .  S
O211       Cr218   1.969       .  S
O212       Cr218   1.989       .  S
O212        C213   1.261       .  A
C213        O214   1.262       .  A
C213       C2416   1.487       .  S
O214       Cr219   1.992       .  S
O215       Cr219   2.010       .  S
O215        C216   1.266       .  A
C216       C2475   1.487       .  S
Cr217       O220   1.775       .  S
Cr218       O220   1.771       .  S
Cr219       O220   1.774       .  S
O221       Cr239   1.960   1_655  S
O221        C229   1.257       .  A
O222       Cr239   2.015   1_655  S
O222        C223   1.270       .  A
C223        O224   1.265       .  A
C223       C2332   1.479       .  S
O224       Cr240   1.975       .  S
O225       Cr240   1.993       .  S
O225        C226   1.260       .  A
C226        O227   1.253       .  A
C226       C2349   1.459       .  S
O227       Cr241   1.976       .  S
O228       Cr241   2.025       .  S
O228        C229   1.272       .  A
C229       C2363   1.498       .  S
O230       Cr239   2.008       .  S
O230        C238   1.266       .  A
O231       Cr239   1.988       .  S
O231        C232   1.259       .  A
C232        O233   1.261       .  A
C232       C2318   1.474       .  S
O233       Cr240   1.986   1_455  S
O234       Cr240   1.961   1_455  S
O234        C235   1.260       .  A
C235        O236   1.275       .  A
C235       C2307   1.479       .  S
O236       Cr241   2.042   1_455  S
O237       Cr241   1.968   1_455  S
O237        C238   1.257       .  A
C238       C2293   1.488       .  S
Cr239       O242   1.776   1_455  S
Cr240       O242   1.755       .  S
Cr241       O242   1.777       .  S
O243       Cr261   1.977       .  S
O243        C251   1.260       .  A
O244       Cr261   2.019       .  S
O244        C245   1.269       .  A
C245        O246   1.258       .  A
C245       C2279   1.486       .  S
O246       Cr262   1.960       .  S
O247       Cr262   1.996       .  S
O247        C248   1.263       .  A
C248        O249   1.264       .  A
C248       C2262   1.497       .  S
O249       Cr263   2.000       .  S
O250       Cr263   2.021       .  S
O250        C251   1.270       .  A
C251       C2220   1.501       .  S
O252       Cr261   2.011       .  S
O252        C260   1.268       .  A
O253       Cr261   1.996       .  S
O253        C254   1.263       .  A
C254        O255   1.263       .  A
C254       C2234   1.494       .  S
O255       Cr262   1.996       .  S
O256       Cr262   1.964       .  S
O256        C257   1.259       .  A
C257        O258   1.271       .  A
C257       C2248   1.489       .  S
O258       Cr263   2.025       .  S
O259       Cr263   1.981       .  S
O259        C260   1.262       .  A
C260       C2433   1.494       .  S
Cr261       O264   1.777       .  S
Cr262       O264   1.765       .  S
Cr263       O264   1.776       .  S
O265       Cr283   1.968   1_655  S
O265        C273   1.258       .  A
O266       Cr283   2.006   1_655  S
O266        C267   1.268       .  A
C267        O268   1.263       .  A
C267       C2192   1.460       .  S
O268       Cr284   1.973       .  S
O269       Cr284   2.000       .  S
O269        C270   1.260       .  A
C270        O271   1.257       .  A
C270       C2206   1.472       .  S
O271       Cr285   1.989       .  S
O272       Cr285   2.011       .  S
O272        C273   1.269       .  A
C273       C2223   1.489       .  S
O274       Cr283   2.012       .  S
O274        C282   1.266       .  A
O275       Cr283   1.990       .  S
O275        C276   1.261       .  A
C276        O277   1.262       .  A
C276       C2181   1.477       .  S
O277       Cr284   1.994   1_455  S
O278       Cr284   1.957   1_455  S
O278        C279   1.261       .  A
C279        O280   1.271       .  A
C279       C2167   1.478       .  S
O280       Cr285   2.022   1_455  S
O281       Cr285   1.966   1_455  S
O281        C282   1.255       .  A
C282       C2153   1.497       .  S
Cr283       O286   1.777   1_455  S
Cr284       O286   1.758       .  S
Cr285       O286   1.773       .  S
O287       Cr305   2.020       .  S
O287        C295   1.268       .  A
O288       Cr305   1.979       .  S
O288        C289   1.262       .  A
C289        O290   1.260       .  A
C289       C2111   1.480       .  S
O290       Cr306   1.992       .  S
O291       Cr306   1.966       .  S
O291        C292   1.258       .  A
C292        O293   1.269       .  A
C292       C2097   1.486       .  S
O293       Cr307   2.013       .  S
O294       Cr307   1.978       .  S
O294        C295   1.263       .  A
C295       C2150   1.496       .  S
O296       Cr305   1.973       .  S
O296        C304   1.261       .  A
O297       Cr305   2.027       .  S
O297        C298   1.270       .  A
C298        O299   1.259       .  A
C298       C2125   1.492       .  S
O299       Cr306   1.965       .  S
O300       Cr306   1.988       .  S
O300        C301   1.262       .  A
C301        O302   1.263       .  A
C301       C2139   1.488       .  S
O302       Cr307   1.992       .  S
O303       Cr307   2.009       .  S
O303        C304   1.267       .  A
C304       C2080   1.486       .  S
Cr305       O308   1.773       .  S
Cr306       O308   1.764       .  S
Cr307       O308   1.771       .  S
O309       Cr327   1.982       .  S
O309        C317   1.261       .  A
O310       Cr327   2.017       .  S
O310        C311   1.270       .  A
C311        O312   1.260       .  A
C311       C2038   1.486       .  S
O312       Cr328   1.967       .  S
O313       Cr328   1.998       .  S
O313        C314   1.261       .  A
C314        O315   1.262       .  A
C314       C2024   1.492       .  S
O315       Cr329   1.987       .  S
O316       Cr329   2.010       .  S
O316        C317   1.266       .  A
C317       C2290   1.498       .  S
O318       Cr327   2.020       .  S
O318        C326   1.269       .  A
O319       Cr327   1.993       .  S
O319        C320   1.262       .  A
C320        O321   1.262       .  A
C320       C2052   1.495       .  S
O321       Cr328   1.992       .  S
O322       Cr328   1.971       .  S
O322        C323   1.260       .  A
C323        O324   1.269       .  A
C323       C2066   1.488       .  S
O324       Cr329   2.012       .  S
O325       Cr329   1.976       .  S
O325        C326   1.262       .  A
C326       C2010   1.495       .  S
Cr327       O330   1.777       .  S
Cr328       O330   1.772       .  S
Cr329       O330   1.772       .  S
O331       Cr349   2.018       .  S
O331        C339   1.271       .  A
O332       Cr349   1.988       .  S
O332        C333   1.258       .  A
C333        O334   1.255       .  A
C333       C1982   1.471       .  S
O334       Cr350   1.974       .  S
O335       Cr350   1.958       .  S
O335        C336   1.261       .  A
C336        O337   1.270       .  A
C336       C1996   1.466       .  S
O337       Cr351   2.019       .  S
O338       Cr351   1.967       .  S
O338        C339   1.261       .  A
C339       C2013   1.497       .  S
O340       Cr349   1.964   1_554  S
O340        C348   1.256       .  A
O341       Cr349   2.028   1_554  S
O341        C342   1.274       .  A
C342        O343   1.260       .  A
C342       C1968   1.472       .  S
O343       Cr350   1.953   1_554  S
O344       Cr350   1.977   1_554  S
O344        C345   1.257       .  A
C345        O346   1.261       .  A
C345       C1954   1.473       .  S
O346       Cr351   2.004   1_554  S
O347       Cr351   2.000   1_554  S
O347        C348   1.264       .  A
C348       C2083   1.480       .  S
Cr349       O352   1.774       .  S
Cr350       O352   1.751       .  S
Cr351       O352   1.775       .  S
O353       Cr371   2.011       .  S
O353        C361   1.268       .  A
O354       Cr371   1.988       .  S
O354        C355   1.258       .  A
C355        O356   1.256       .  A
C355       C1884   1.463       .  S
O356       Cr372   1.971       .  S
O357       Cr372   1.967       .  S
O357        C358   1.260       .  A
C358        O359   1.270       .  A
C358       C1898   1.463       .  S
O359       Cr373   2.024   1_455  S
O360       Cr373   1.961   1_455  S
O360        C361   1.256       .  A
C361       C1873   1.491       .  S
O362       Cr371   1.966   1_655  S
O362        C370   1.256       .  A
O363       Cr371   2.026   1_655  S
O363        C364   1.272       .  A
C364        O365   1.262       .  A
C364       C1940   1.476       .  S
O365       Cr372   1.966   1_655  S
O366       Cr372   1.971   1_655  S
O366        C367   1.258       .  A
C367        O368   1.257       .  A
C367       C1929   1.460       .  S
O368       Cr373   1.987       .  S
O369       Cr373   2.011       .  S
O369        C370   1.268       .  A
C370       C1915   1.493       .  S
Cr371       O374   1.774       .  S
Cr372       O374   1.750       .  S
Cr373       O374   1.777   1_655  S
O375       Cr393   1.982       .  S
O375        C383   1.263       .  A
O376       Cr393   2.005       .  S
O376        C377   1.267       .  A
C377        O378   1.261       .  A
C377       C1828   1.467       .  S
O378       Cr394   1.969       .  S
O379       Cr394   1.986       .  S
O379        C380   1.258       .  A
C380        O381   1.262       .  A
C380       C1814   1.486       .  S
O381       Cr395   1.992       .  S
O382       Cr395   2.007       .  S
O382        C383   1.266       .  A
C383       C1800   1.493       .  S
O384       Cr393   2.006       .  S
O384        C392   1.264       .  A
O385       Cr393   1.998       .  S
O385        C386   1.263       .  A
C386        O387   1.258       .  A
C386       C1842   1.484       .  S
O387       Cr394   1.979       .  S
O388       Cr394   1.976       .  S
O388        C389   1.262       .  A
C389        O390   1.271       .  A
C389       C1856   1.492       .  S
O390       Cr395   2.014       .  S
O391       Cr395   1.983       .  S
O391        C392   1.263       .  A
C392       C1912   1.491       .  S
Cr393       O396   1.780       .  S
Cr394       O396   1.777       .  S
Cr395       O396   1.773       .  S
O397       Cr415   2.014       .  S
O397        C405   1.268       .  A
O398       Cr415   1.979       .  S
O398        C399   1.256       .  A
C399        O400   1.263       .  A
C399       C1772   1.465       .  S
O400       Cr416   1.998   1_565  S
O401       Cr416   1.962   1_565  S
O401        C402   1.262       .  A
C402        O403   1.269       .  A
C402       C1786   1.471       .  S
O403       Cr417   2.013   1_565  S
O404       Cr417   1.967   1_565  S
O404        C405   1.257       .  A
C405       C1803   1.491       .  S
O406       Cr415   1.956   1_545  S
O406        C414   1.257       .  A
O407       Cr415   2.027   1_545  S
O407        C408   1.271       .  A
C408        O409   1.262       .  A
C408       C1758   1.473       .  S
O409       Cr416   1.967       .  S
O410       Cr416   1.999       .  S
O410        C411   1.261       .  A
C411        O412   1.258       .  A
C411       C1744   1.469       .  S
O412       Cr417   1.989       .  S
O413       Cr417   2.006       .  S
O413        C414   1.265       .  A
C414       C1730   1.491       .  S
Cr415       O418   1.775   1_565  S
Cr416       O418   1.755       .  S
Cr417       O418   1.773       .  S
O419       Cr437   1.974       .  S
O419        C427   1.262       .  A
O420       Cr437   2.005       .  S
O420        C421   1.265       .  A
C421        O422   1.262       .  A
C421       C1688   1.478       .  S
O422       Cr438   1.975       .  S
O423       Cr438   1.987       .  S
O423        C424   1.261       .  A
C424        O425   1.262       .  A
C424       C1674   1.488       .  S
O425       Cr439   1.994       .  S
O426       Cr439   2.012       .  S
O426        C427   1.269       .  A
C427       C1870   1.488       .  S
O428       Cr437   2.002       .  S
O428        C436   1.263       .  A
O429       Cr437   1.982       .  S
O429        C430   1.262       .  A
C430        O431   1.259       .  A
C430       C1702   1.470       .  S
O431       Cr438   1.988       .  S
O432       Cr438   1.963       .  S
O432        C433   1.259       .  A
C433        O434   1.269       .  A
C433       C1716   1.482       .  S
O434       Cr439   2.018       .  S
O435       Cr439   1.985       .  S
O435        C436   1.262       .  A
C436       C1660   1.489       .  S
Cr437       O440   1.777       .  S
Cr438       O440   1.772       .  S
Cr439       O440   1.777       .  S
O441       Cr459   2.021       .  S
O441        C449   1.271       .  A
O442       Cr459   1.982       .  S
O442        C443   1.259       .  A
C443        O444   1.262       .  A
C443       C1632   1.469       .  S
O444       Cr460   2.002   1_565  S
O445       Cr460   1.974   1_565  S
O445        C446   1.261       .  A
C446        O447   1.269       .  A
C446       C1649   1.468       .  S
O447       Cr461   2.020   1_565  S
O448       Cr461   1.956   1_565  S
O448        C449   1.255       .  A
C449       C1663   1.489       .  S
O450       Cr459   1.976   1_545  S
O450        C458   1.257       .  A
O451       Cr459   2.022   1_545  S
O451        C452   1.269       .  A
C452        O453   1.260       .  A
C452       C1621   1.475       .  S
O453       Cr460   1.969       .  S
O454       Cr460   1.991       .  S
O454        C455   1.261       .  A
C455        O456   1.253       .  A
C455       C1607   1.451       .  S
O456       Cr461   1.967       .  S
O457       Cr461   2.014       .  S
O457        C458   1.268       .  A
C458       C1590   1.502       .  S
Cr459       O462   1.777   1_565  S
Cr460       O462   1.759       .  S
Cr461       O462   1.782       .  S
O463       Cr481   2.008       .  S
O463        C471   1.266       .  A
O464       Cr481   2.002       .  S
O464        C465   1.265       .  A
C465        O466   1.262       .  A
C465       C1576   1.500       .  S
O466       Cr482   1.994       .  S
O467       Cr482   1.965       .  S
O467        C468   1.260       .  A
C468        O469   1.265       .  A
C468       C1562   1.483       .  S
O469       Cr483   2.006       .  S
O470       Cr483   1.988       .  S
O470        C471   1.263       .  A
C471       C1520   1.494       .  S
O472       Cr481   1.985       .  S
O472        C480   1.263       .  A
O473       Cr481   2.005       .  S
O473        C474   1.267       .  A
C474        O475   1.261       .  A
C474       C1534   1.479       .  S
O475       Cr482   1.974       .  S
O476       Cr482   1.992       .  S
O476        C477   1.262       .  A
C477        O478   1.264       .  A
C477       C1551   1.497       .  S
O478       Cr483   1.999       .  S
O479       Cr483   1.996       .  S
O479        C480   1.263       .  A
C480       C1733   1.484       .  S
Cr481       O484   1.779       .  S
Cr482       O484   1.772       .  S
Cr483       O484   1.781       .  S
O485       Cr503   1.986       .  S
O485        C493   1.263       .  A
O486       Cr503   2.013       .  S
O486        C487   1.270       .  A
C487        O488   1.259       .  A
C487       C1506   1.476       .  S
O488       Cr504   1.964       .  S
O489       Cr504   1.998       .  S
O489        C490   1.263       .  A
C490        O491   1.262       .  A
C490       C1495   1.482       .  S
O491       Cr505   1.981       .  S
O492       Cr505   2.024       .  S
O492        C493   1.268       .  A
C493       C1593   1.503       .  S
O494       Cr503   2.019       .  S
O494        C502   1.269       .  A
O495       Cr503   1.988       .  S
O495        C496   1.260       .  A
C496        O497   1.262       .  A
C496       C1464   1.497       .  S
O497       Cr504   2.001       .  S
O498       Cr504   1.959       .  S
O498        C499   1.258       .  A
C499        O500   1.269       .  A
C499       C1478   1.488       .  S
O500       Cr505   2.028       .  S
O501       Cr505   1.982       .  S
O501        C502   1.264       .  A
C502       C1453   1.498       .  S
Cr503       O506   1.771       .  S
Cr504       O506   1.776       .  S
Cr505       O506   1.777       .  S
O507       Cr525   2.024       .  S
O507        C515   1.273       .  A
O508       Cr525   2.001       .  S
O508        C509   1.260       .  A
C509        O510   1.259       .  A
C509       C1425   1.475       .  S
O510       Cr526   1.981       .  S
O511       Cr526   1.967       .  S
O511        C512   1.259       .  A
C512        O513   1.270       .  A
C512       C1436   1.465       .  S
O513       Cr527   2.026   1_655  S
O514       Cr527   1.960   1_655  S
O514        C515   1.256       .  A
C515       C1523   1.499       .  S
O516       Cr525   1.977   1_455  S
O516        C524   1.257       .  A
O517       Cr525   2.030   1_455  S
O517        C518   1.272       .  A
C518        O519   1.258       .  A
C518       C1411   1.464       .  S
O519       Cr526   1.954   1_455  S
O520       Cr526   1.984   1_455  S
O520        C521   1.261       .  A
C521        O522   1.258       .  A
C521       C1394   1.471       .  S
O522       Cr527   1.984       .  S
O523       Cr527   2.011       .  S
O523        C524   1.267       .  A
C524       C1450   1.501       .  S
Cr525       O528   1.777       .  S
Cr526       O528   1.753       .  S
Cr527       O528   1.780   1_455  S
O529       Cr547   2.009       .  S
O529        C537   1.267       .  A
O530       Cr547   1.980       .  S
O530        C531   1.256       .  A
C531        O532   1.261       .  A
C531       C1439   1.476       .  S
O532       Cr548   2.003       .  S
O533       Cr548   1.963       .  S
O533        C534   1.263       .  A
C534        O535   1.272       .  A
C534       C1366   1.487       .  S
O535       Cr549   2.026       .  S
O536       Cr549   1.971       .  S
O536        C537   1.259       .  A
C537       C1579   1.484       .  S
O538       Cr547   1.967       .  S
O538        C546   1.257       .  A
O539       Cr547   2.026       .  S
O539        C540   1.272       .  A
C540        O541   1.259       .  A
C540       C2335   1.473       .  S
O541       Cr548   1.954       .  S
O542       Cr548   1.993       .  S
O542        C543   1.260       .  A
C543        O544   1.259       .  A
C543       C1380   1.486       .  S
O544       Cr549   1.990       .  S
O545       Cr549   2.011       .  S
O545        C546   1.268       .  A
C546       C2377   1.483       .  S
Cr547       O550   1.773       .  S
Cr548       O550   1.759       .  S
Cr549       O550   1.769       .  S
O551       Cr569   1.962       .  S
O551        C559   1.255       .  A
O552       Cr569   2.020       .  S
O552        C553   1.270       .  A
C553        O554   1.258       .  A
C553       C1789   1.469       .  S
O554       Cr570   1.949       .  S
O555       Cr570   2.013       .  S
O555        C556   1.267       .  A
C556        O557   1.260       .  A
C556       C1338   1.483       .  S
O557       Cr571   1.982       .  S
O558       Cr571   2.001       .  S
O558        C559   1.263       .  A
C559       C1831   1.487       .  S
O560       Cr569   2.014       .  S
O560        C568   1.269       .  A
O561       Cr569   1.969       .  S
O561        C562   1.253       .  A
C562        O563   1.265       .  A
C562       C3046   1.471       .  S
O563       Cr570   2.006       .  S
O564       Cr570   1.961       .  S
O564        C565   1.259       .  A
C565        O566   1.268       .  A
C565       C1352   1.465       .  S
O566       Cr571   2.015       .  S
O567       Cr571   1.954       .  S
O567        C568   1.258       .  A
C568       C2965   1.490       .  S
Cr569       O572   1.772       .  S
Cr570       O572   1.754       .  S
Cr571       O572   1.765       .  S
O573       Cr591   2.018       .  S
O573        C581   1.270       .  A
O574       Cr591   1.962       .  S
O574        C575   1.250       .  A
C575        O576   1.263       .  A
C575       C3063   1.458       .  S
O576       Cr592   2.006       .  S
O577       Cr592   1.968       .  S
O577        C578   1.261       .  A
C578        O579   1.267       .  A
C578       C1355   1.470       .  S
O579       Cr593   2.010       .  S
O580       Cr593   1.946       .  S
O580        C581   1.254       .  A
C581       C2979   1.487       .  S
O582       Cr591   1.950       .  S
O582        C590   1.253       .  A
O583       Cr591   2.039       .  S
O583        C584   1.275       .  A
C584        O585   1.259       .  A
C584       C1635   1.484       .  S
O585       Cr592   1.956       .  S
O586       Cr592   2.000       .  S
O586        C587   1.265       .  A
C587        O588   1.258       .  A
C587       C1324   1.471       .  S
O588       Cr593   1.969       .  S
O589       Cr593   2.003       .  S
O589        C590   1.265       .  A
C590       C1705   1.471       .  S
Cr591       O594   1.772       .  S
Cr592       O594   1.755       .  S
Cr593       O594   1.772       .  S
O595       Cr613   1.944       .  S
O595        C603   1.255       .  A
O596       Cr613   2.008       .  S
O596        C597   1.264       .  A
C597        O598   1.259       .  A
C597       C2346   1.459       .  S
O598       Cr614   1.966       .  S
O599       Cr614   2.002       .  S
O599        C600   1.265       .  A
C600        O601   1.257       .  A
C600       C1383   1.482       .  S
O601       Cr615   1.977       .  S
O602       Cr615   2.018       .  S
O602        C603   1.271       .  A
C603       C2391   1.485       .  S
O604       Cr613   1.991       .  S
O604        C612   1.261       .  A
O605       Cr613   1.964       .  S
O605        C606   1.255       .  A
C606        O607   1.267       .  A
C606       C1926   1.466       .  S
O607       Cr614   2.005       .  S
O608       Cr614   1.966       .  S
O608        C609   1.263       .  A
C609        O610   1.271       .  A
C609       C1310   1.491       .  S
O610       Cr615   2.022       .  S
O611       Cr615   1.965       .  S
O611        C612   1.256       .  A
C612       C1845   1.472       .  S
Cr613       O616   1.774       .  S
Cr614       O616   1.755       .  S
Cr615       O616   1.766       .  S
O617       Cr635   1.959       .  S
O617        C625   1.256       .  A
O618       Cr635   2.022       .  S
O618        C619   1.269       .  A
C619        O620   1.258       .  A
C619       C1943   1.471       .  S
O620       Cr636   1.961       .  S
O621       Cr636   1.997       .  S
O621        C622   1.263       .  A
C622        O623   1.261       .  A
C622       C1313   1.478       .  S
O623       Cr637   1.987       .  S
O624       Cr637   2.013       .  S
O624        C625   1.269       .  A
C625       C1859   1.483       .  S
O626       Cr635   2.007       .  S
O626        C634   1.266       .  A
O627       Cr635   1.963       .  S
O627        C628   1.252       .  A
C628        O629   1.262       .  A
C628       C2195   1.460       .  S
O629       Cr636   2.002       .  S
O630       Cr636   1.968       .  S
O630        C631   1.262       .  A
C631        O632   1.268       .  A
C631       C1296   1.486       .  S
O632       Cr637   2.013       .  S
O633       Cr637   1.974       .  S
O633        C634   1.259       .  A
C634       C2265   1.483       .  S
Cr635       O638   1.776       .  S
Cr636       O638   1.761       .  S
Cr637       O638   1.773       .  S
O639       Cr657   1.955       .  S
O639        C647   1.257       .  A
O640       Cr657   2.021       .  S
O640        C641   1.269       .  A
C641        O642   1.259       .  A
C641       C1999   1.462       .  S
O642       Cr658   1.953       .  S
O643       Cr658   1.993       .  S
O643        C644   1.260       .  A
C644        O645   1.260       .  A
C644       C1268   1.485       .  S
O645       Cr659   1.988       .  S
O646       Cr659   2.011       .  S
O646        C647   1.269       .  A
C647       C2069   1.480       .  S
O648       Cr657   1.996       .  S
O648        C656   1.263       .  A
O649       Cr657   1.984       .  S
O649        C650   1.257       .  A
C650        O651   1.261       .  A
C650       C2895   1.476       .  S
O651       Cr658   1.988       .  S
O652       Cr658   1.962       .  S
O652        C653   1.259       .  A
C653        O654   1.272       .  A
C653       C1282   1.483       .  S
O654       Cr659   2.019       .  S
O655       Cr659   1.960       .  S
O655        C656   1.257       .  A
C656       C2937   1.484       .  S
Cr657       O660   1.776       .  S
Cr658       O660   1.750       .  S
Cr659       O660   1.766       .  S
O661       Cr679   1.951       .  S
O661        C669   1.256       .  A
O662       Cr679   2.013       .  S
O662        C663   1.267       .  A
C663        O664   1.259       .  A
C663       C2909   1.457       .  S
O664       Cr680   1.954       .  S
O665       Cr680   1.998       .  S
O665        C666   1.263       .  A
C666        O667   1.259       .  A
C666       C1285   1.478       .  S
O667       Cr681   1.983       .  S
O668       Cr681   2.018       .  S
O668        C669   1.270       .  A
C669       C2951   1.488       .  S
O670       Cr679   2.000       .  S
O670        C678   1.264       .  A
O671       Cr679   1.968       .  S
O671        C672   1.254       .  A
C672        O673   1.263       .  A
C672       C2489   1.463       .  S
O673       Cr680   2.000       .  S
O674       Cr680   1.958       .  S
O674        C675   1.260       .  A
C675        O676   1.271       .  A
C675       C1254   1.472       .  S
O676       Cr681   2.018       .  S
O677       Cr681   1.967       .  S
O677        C678   1.257       .  A
C678       C2405   1.483       .  S
Cr679       O682   1.772       .  S
Cr680       O682   1.756       .  S
Cr681       O682   1.768       .  S
O683       Cr701   1.999       .  S
O683        C691   1.263       .  A
O684       Cr701   1.974       .  S
O684        C685   1.256       .  A
C685        O686   1.265       .  A
C685       C2559   1.474       .  S
O686       Cr702   2.002       .  S
O687       Cr702   1.959       .  S
O687        C688   1.261       .  A
C688        O689   1.275       .  A
C688       C1240   1.478       .  S
O689       Cr703   2.033       .  S
O690       Cr703   1.962       .  S
O690        C691   1.256       .  A
C691       C2626   1.477       .  S
O692       Cr701   1.951       .  S
O692        C700   1.255       .  A
O693       Cr701   2.014       .  S
O693        C694   1.267       .  A
C694        O695   1.257       .  A
C694       C1775   1.456       .  S
O695       Cr702   1.959       .  S
O696       Cr702   1.998       .  S
O696        C697   1.261       .  A
C697        O698   1.258       .  A
C697       C1341   1.480       .  S
O698       Cr703   1.988       .  S
O699       Cr703   2.020       .  S
O699        C700   1.271       .  A
C700       C1817   1.490       .  S
Cr701       O704   1.778       .  S
Cr702       O704   1.757       .  S
Cr703       O704   1.766       .  S
O705       Cr723   2.003       .  S
O705        C713   1.265       .  A
O706       Cr723   1.976       .  S
O706        C707   1.256       .  A
C707        O708   1.262       .  A
C707       C2503   1.475       .  S
O708       Cr724   1.999       .  S
O709       Cr724   1.962       .  S
O709        C710   1.261       .  A
C710        O711   1.269       .  A
C710       C1257   1.469       .  S
O711       Cr725   2.012       .  S
O712       Cr725   1.963       .  S
O712        C713   1.257       .  A
C713       C2419   1.478       .  S
O714       Cr723   1.953       .  S
O714        C722   1.256       .  A
O715       Cr723   2.020       .  S
O715        C716   1.269       .  A
C716        O717   1.259       .  A
C716       C2752   1.468       .  S
O717       Cr724   1.953       .  S
O718       Cr724   2.001       .  S
O718        C719   1.265       .  A
C719        O720   1.259       .  A
C719       C1226   1.484       .  S
O720       Cr725   1.985       .  S
O721       Cr725   2.003       .  S
O721        C722   1.265       .  A
C722       C2825   1.484       .  S
Cr723       O726   1.773       .  S
Cr724       O726   1.753       .  S
Cr725       O726   1.768       .  S
O727       Cr745   2.009       .  S
O727        C735   1.267       .  A
O728       Cr745   1.968       .  S
O728        C729   1.252       .  A
C729        O730   1.263       .  A
C729       C1761   1.463       .  S
O730       Cr746   2.010       .  S
O731       Cr746   1.968       .  S
O731        C732   1.263       .  A
C732        O733   1.269       .  A
C732       C1198   1.487       .  S
O733       Cr747   2.015       .  S
O734       Cr747   1.963       .  S
O734        C735   1.257       .  A
C735       C1548   1.482       .  S
O736       Cr745   1.957       .  S
O736        C744   1.257       .  A
O737       Cr745   2.027       .  S
O737        C738   1.271       .  A
C738        O739   1.259       .  A
C738       C2514   1.475       .  S
O739       Cr746   1.961       .  S
O740       Cr746   2.002       .  S
O740        C741   1.264       .  A
C741        O742   1.259       .  A
C741       C1212   1.480       .  S
O742       Cr747   1.984       .  S
O743       Cr747   2.015       .  S
O743        C744   1.267       .  A
C744       C2654   1.490       .  S
Cr745       O748   1.774       .  S
Cr746       O748   1.760       .  S
Cr747       O748   1.772       .  S
O749       Cr767   1.999       .  S
O749        C757   1.263       .  A
O750       Cr767   1.989       .  S
O750        C751   1.259       .  A
C751        O752   1.262       .  A
C751       C1646   1.482       .  S
O752       Cr768   2.002       .  S
O753       Cr768   1.950       .  S
O753        C754   1.260       .  A
C754        O755   1.274       .  A
C754       C1327   1.473       .  S
O755       Cr769   2.025       .  S
O756       Cr769   1.969       .  S
O756        C757   1.259       .  A
C757       C1719   1.485       .  S
O758       Cr767   1.963       .  S
O758        C766   1.256       .  A
O759       Cr767   2.010       .  S
O759        C760   1.268       .  A
C760        O761   1.258       .  A
C760       C2545   1.462       .  S
O761       Cr768   1.945       .  S
O762       Cr768   1.998       .  S
O762        C763   1.260       .  A
C763        O764   1.259       .  A
C763       C1243   1.490       .  S
O764       Cr769   1.991       .  S
O765       Cr769   2.015       .  S
O765        C766   1.271       .  A
C766       C2615   1.488       .  S
Cr767       O770   1.775       .  S
Cr768       O770   1.759       .  S
Cr769       O770   1.767       .  S
O771       Cr789   2.009       .  S
O771        C779   1.267       .  A
O772       Cr789   1.971       .  S
O772        C773   1.254       .  A
C773        O774   1.264       .  A
C773       C1901   1.468       .  S
O774       Cr790   2.008       .  S
O775       Cr790   1.977       .  S
O775        C776   1.265       .  A
C776        O777   1.274       .  A
C776       C1170   1.493       .  S
O777       Cr791   2.035       .  S
O778       Cr791   1.950       .  S
O778        C779   1.254       .  A
C779       C1691   1.482       .  S
O780       Cr789   1.951       .  S
O780        C788   1.255       .  A
O781       Cr789   2.029       .  S
O781        C782   1.271       .  A
C782        O783   1.263       .  A
C782       C2304   1.479       .  S
O783       Cr790   1.971       .  S
O784       Cr790   2.006       .  S
O784        C785   1.264       .  A
C785        O786   1.255       .  A
C785       C1184   1.480       .  S
O786       Cr791   1.972       .  S
O787       Cr791   2.019       .  S
O787        C788   1.269       .  A
C788       C2027   1.491       .  S
Cr789       O792   1.774       .  S
Cr790       O792   1.757       .  S
Cr791       O792   1.772       .  S
O793       Cr811   1.950       .  S
O793        C801   1.255       .  A
O794       Cr811   2.029       .  S
O794        C795   1.271       .  A
C795        O796   1.260       .  A
C795       C1618   1.471       .  S
O796       Cr812   1.963       .  S
O797       Cr812   1.993       .  S
O797        C798   1.263       .  A
C798        O799   1.256       .  A
C798       C1142   1.474       .  S
O799       Cr813   1.975       .  S
O800       Cr813   2.008       .  S
O800        C801   1.266       .  A
C801       C1509   1.485       .  S
O802       Cr811   2.005       .  S
O802        C810   1.267       .  A
O803       Cr811   1.977       .  S
O803        C804   1.255       .  A
C804        O805   1.263       .  A
C804       C3004   1.470       .  S
O805       Cr812   2.002       .  S
O806       Cr812   1.973       .  S
O806        C807   1.265       .  A
C807        O808   1.272       .  A
C807       C1156   1.487       .  S
O808       Cr813   2.024       .  S
O809       Cr813   1.946       .  S
O809        C810   1.253       .  A
C810       C2797   1.485       .  S
Cr811       O814   1.774       .  S
Cr812       O814   1.753       .  S
Cr813       O814   1.771       .  S
O815       Cr833   1.954       .  S
O815        C823   1.255       .  A
O816       Cr833   2.035       .  S
O816        C817   1.274       .  A
C817        O818   1.258       .  A
C817       C2209   1.473       .  S
O818       Cr834   1.960       .  S
O819       Cr834   2.000       .  S
O819        C820   1.263       .  A
C820        O821   1.256       .  A
C820       C1299   1.473       .  S
O821       Cr835   1.974       .  S
O822       Cr835   2.006       .  S
O822        C823   1.267       .  A
C823       C2276   1.470       .  S
O824       Cr833   2.011       .  S
O824        C832   1.266       .  A
O825       Cr833   1.978       .  S
O825        C826   1.254       .  A
C826        O827   1.265       .  A
C826       C1422   1.480       .  S
O827       Cr834   2.009       .  S
O828       Cr834   1.964       .  S
O828        C829   1.260       .  A
C829        O830   1.273       .  A
C829       C1369   1.491       .  S
O830       Cr835   2.023       .  S
O831       Cr835   1.943       .  S
O831        C832   1.254       .  A
C832       C1565   1.487       .  S
Cr833       O836   1.777       .  S
Cr834       O836   1.758       .  S
Cr835       O836   1.771       .  S
O837       Cr855   1.947       .  S
O837        C845   1.253       .  A
O838       Cr855   2.014       .  S
O838        C839   1.267       .  A
C839        O840   1.258       .  A
C839       C2178   1.462       .  S
O840       Cr856   1.964       .  S
O841       Cr856   1.994       .  S
O841        C842   1.264       .  A
C842        O843   1.260       .  A
C842       C1128   1.482       .  S
O843       Cr857   1.985       .  S
O844       Cr857   2.018       .  S
O844        C845   1.270       .  A
C845       C2108   1.482       .  S
O846       Cr855   2.006       .  S
O846        C854   1.266       .  A
O847       Cr855   1.958       .  S
O847        C848   1.251       .  A
C848        O849   1.264       .  A
C848       C1887   1.463       .  S
O849       Cr856   1.997       .  S
O850       Cr856   1.971       .  S
O850        C851   1.261       .  A
C851        O852   1.273       .  A
C851       C1173   1.491       .  S
O852       Cr857   2.039       .  S
O853       Cr857   1.963       .  S
O853        C854   1.258       .  A
C854       C1677   1.473       .  S
Cr855       O858   1.778       .  S
Cr856       O858   1.755       .  S
Cr857       O858   1.770       .  S
O859       Cr877   1.961       .  S
O859        C867   1.256       .  A
O860       Cr877   2.020       .  S
O860        C861   1.270       .  A
C861        O862   1.259       .  A
C861       C2321   1.461       .  S
O862       Cr878   1.957       .  S
O863       Cr878   1.996       .  S
O863        C864   1.261       .  A
C864        O865   1.260       .  A
C864       C1187   1.480       .  S
O865       Cr879   1.985       .  S
O866       Cr879   2.003       .  S
O866        C867   1.266       .  A
C867       C2041   1.479       .  S
O868       Cr877   2.009       .  S
O868        C876   1.267       .  A
O869       Cr877   1.980       .  S
O869        C870   1.255       .  A
C870        O871   1.261       .  A
C870       C1397   1.474       .  S
O871       Cr878   1.991       .  S
O872       Cr878   1.969       .  S
O872        C873   1.261       .  A
C873        O874   1.269       .  A
C873       C1117   1.477       .  S
O874       Cr879   2.013       .  S
O875       Cr879   1.966       .  S
O875        C876   1.258       .  A
C876       C1467   1.479       .  S
Cr877       O880   1.777       .  S
Cr878       O880   1.760       .  S
Cr879       O880   1.769       .  S
O881       Cr899   2.008       .  S
O881        C889   1.266       .  A
O882       Cr899   1.977       .  S
O882        C883   1.257       .  A
C883        O884   1.264       .  A
C883       C3018   1.480       .  S
O884       Cr900   1.998       .  S
O885       Cr900   1.964       .  S
O885        C886   1.262       .  A
C886        O887   1.274       .  A
C886       C1159   1.484       .  S
O887       Cr901   2.031       .  S
O888       Cr901   1.965       .  S
O888        C889   1.258       .  A
C889       C2808   1.484       .  S
O890       Cr899   1.949       .  S
O890        C898   1.254       .  A
O891       Cr899   2.026       .  S
O891        C892   1.271       .  A
C892        O893   1.257       .  A
C892       C1747   1.473       .  S
O893       Cr900   1.962       .  S
O894       Cr900   1.991       .  S
O894        C895   1.260       .  A
C895        O896   1.257       .  A
C895       C1201   1.472       .  S
O896       Cr901   1.985       .  S
O897       Cr901   2.012       .  S
O897        C898   1.269       .  A
C898       C1537   1.485       .  S
Cr899       O902   1.775       .  S
Cr900       O902   1.755       .  S
Cr901       O902   1.772       .  S
O903       Cr921   1.944       .  S
O903        C911   1.256       .  A
O904       Cr921   2.024       .  S
O904        C905   1.271       .  A
C905        O906   1.257       .  A
C905       C2766   1.464       .  S
O906       Cr922   1.949       .  S
O907       Cr922   1.990       .  S
O907        C908   1.259       .  A
C908        O909   1.259       .  A
C908       C1229   1.486       .  S
O909       Cr923   1.992       .  S
O910       Cr923   2.024       .  S
O910        C911   1.271       .  A
C911       C2839   1.491       .  S
O912       Cr921   2.003       .  S
O912        C920   1.265       .  A
O913       Cr921   1.969       .  S
O913        C914   1.253       .  A
C914        O915   1.261       .  A
C914       C1985   1.464       .  S
O915       Cr922   1.992       .  S
O916       Cr922   1.947       .  S
O916        C917   1.259       .  A
C917        O918   1.276       .  A
C917       C1271   1.483       .  S
O918       Cr923   2.040       .  S
O919       Cr923   1.965       .  S
O919        C920   1.256       .  A
C920       C2055   1.480       .  S
Cr921       O924   1.777       .  S
Cr922       O924   1.756       .  S
Cr923       O924   1.768       .  S
O925       Cr943   1.949       .  S
O925        C933   1.256       .  A
O926       Cr943   2.014       .  S
O926        C927   1.268       .  A
C927        O928   1.259       .  A
C927       C2461   1.465       .  S
O928       Cr944   1.965       .  S
O929       Cr944   1.997       .  S
O929        C930   1.263       .  A
C930        O931   1.258       .  A
C930       C1086   1.480       .  S
O931       Cr945   1.987       .  S
O932       Cr945   2.017       .  S
O932        C933   1.271       .  A
C933       C2251   1.476       .  S
O934       Cr943   1.994       .  S
O934        C942   1.261       .  A
O935       Cr943   1.975       .  S
O935        C936   1.256       .  A
C936        O937   1.265       .  A
C936       C2867   1.475       .  S
O937       Cr944   2.005       .  S
O938       Cr944   1.961       .  S
O938        C939   1.261       .  A
C939        O940   1.273       .  A
C939       C1100   1.487       .  S
O940       Cr945   2.025       .  S
O941       Cr945   1.962       .  S
O941        C942   1.255       .  A
C942       C2587   1.473       .  S
Cr943       O946   1.776       .  S
Cr944       O946   1.755       .  S
Cr945       O946   1.770       .  S
O947       Cr965   1.965       .  S
O947        C955   1.256       .  A
O948       Cr965   2.032       .  S
O948        C949   1.272       .  A
C949        O950   1.257       .  A
C949       C2881   1.475       .  S
O950       Cr966   1.955       .  S
O951       Cr966   2.003       .  S
O951        C952   1.265       .  A
C952        O953   1.259       .  A
C952       C1103   1.472       .  S
O953       Cr967   1.974       .  S
O954       Cr967   2.007       .  S
O954        C955   1.266       .  A
C955       C2598   1.486       .  S
O956       Cr965   2.020       .  S
O956        C964   1.270       .  A
O957       Cr965   1.978       .  S
O957        C958   1.255       .  A
C958        O959   1.264       .  A
C958       C1957   1.476       .  S
O959       Cr966   1.998       .  S
O960       Cr966   1.972       .  S
O960        C961   1.261       .  A
C961        O962   1.269       .  A
C961       C1072   1.480       .  S
O962       Cr967   2.023       .  S
O963       Cr967   1.952       .  S
O963        C964   1.258       .  A
C964       C2122   1.493       .  S
Cr965       O968   1.781       .  S
Cr966       O968   1.757       .  S
Cr967       O968   1.775       .  S
O969       Cr987   1.954       .  S
O969        C977   1.255       .  A
O970       Cr987   2.029       .  S
O970        C971   1.272       .  A
C971        O972   1.260       .  A
C971       C2741   1.477       .  S
O972       Cr988   1.956       .  S
O973       Cr988   1.998       .  S
O973        C974   1.262       .  A
C974        O975   1.256       .  A
C974       C1058   1.472       .  S
O975       Cr989   1.981       .  S
O976       Cr989   2.020       .  S
O976        C977   1.272       .  A
C977       C2699   1.489       .  S
O978       Cr987   2.010       .  S
O978        C986   1.266       .  A
O979       Cr987   1.968       .  S
O979        C980   1.253       .  A
C980        O981   1.261       .  A
C980       C2447   1.458       .  S
O981       Cr988   1.999       .  S
O982       Cr988   1.957       .  S
O982        C983   1.261       .  A
C983        O984   1.275       .  A
C983       C1089   1.491       .  S
O984       Cr989   2.038       .  S
O985       Cr989   1.961       .  S
O985        C986   1.255       .  A
C986       C2237   1.481       .  S
Cr987       O990   1.773       .  S
Cr988       O990   1.756       .  S
Cr989       O990   1.769       .  S
O991      Cr1009   2.012       .  S
O991        C999   1.267       .  A
O992      Cr1009   1.979       .  S
O992        C993   1.256       .  A
C993        O994   1.264       .  A
C993       C1408   1.483       .  S
O994      Cr1010   2.002       .  S
O995      Cr1010   1.957       .  S
O995        C996   1.261       .  A
C996        O997   1.270       .  A
C996       C1114   1.472       .  S
O997      Cr1011   2.021       .  S
O998      Cr1011   1.954       .  S
O998        C999   1.258       .  A
C999       C1481   1.488       .  S
O1000     Cr1009   1.952       .  S
O1000      C1008   1.253       .  A
O1001     Cr1009   2.023       .  S
O1001      C1002   1.271       .  A
C1002      O1003   1.259       .  A
C1002      C2164   1.474       .  S
O1003     Cr1010   1.952       .  S
O1004     Cr1010   1.999       .  S
O1004      C1005   1.263       .  A
C1005      O1006   1.257       .  A
C1005      C1131   1.481       .  S
O1006     Cr1011   1.982       .  S
O1007     Cr1011   2.004       .  S
O1007      C1008   1.266       .  A
C1008      C2094   1.478       .  S
Cr1009     O1012   1.772       .  S
Cr1010     O1012   1.755       .  S
Cr1011     O1012   1.770       .  S
O1013     Cr1031   2.006       .  S
O1013      C1021   1.266       .  A
O1014     Cr1031   1.949       .  S
O1014      C1015   1.250       .  A
C1015      O1016   1.266       .  A
C1015      C2531   1.464       .  S
O1016     Cr1032   2.012       .  S
O1017     Cr1032   1.963       .  S
O1017      C1018   1.260       .  A
C1018      O1019   1.273       .  A
C1018      C1215   1.489       .  S
O1019     Cr1033   2.028       .  S
O1020     Cr1033   1.951       .  S
O1020      C1021   1.256       .  A
C1021      C2668   1.475       .  S
O1022     Cr1031   1.939       .  S
O1022      C1030   1.252       .  A
O1023     Cr1031   2.011       .  S
O1023      C1024   1.268       .  A
C1024      O1025   1.254       .  A
C1024      C1604   1.467       .  S
O1025     Cr1032   1.948       .  S
O1026     Cr1032   2.004       .  S
O1026      C1027   1.265       .  A
C1027      O1028   1.256       .  A
C1027      C1145   1.475       .  S
O1028     Cr1033   1.968       .  S
O1029     Cr1033   2.018       .  S
O1029      C1030   1.269       .  A
C1030      C1492   1.482       .  S
Cr1031     O1034   1.772       .  S
Cr1032     O1034   1.759       .  S
Cr1033     O1034   1.760       .  S
O1035     Cr1053   2.001       .  S
O1035      C1043   1.265       .  A
O1036     Cr1053   1.977       .  S
O1036      C1037   1.257       .  A
C1037      O1038   1.261       .  A
C1037      C1971   1.479       .  S
O1038     Cr1054   1.997       .  S
O1039     Cr1054   1.961       .  S
O1039      C1040   1.260       .  A
C1040      O1041   1.273       .  A
C1040      C1075   1.477       .  S
O1041     Cr1055   2.036       .  S
O1042     Cr1055   1.961       .  S
O1042      C1043   1.259       .  A
C1043      C2136   1.474       .  S
O1044     Cr1053   1.961       .  S
O1044      C1052   1.255       .  A
O1045     Cr1053   2.009       .  S
O1045      C1046   1.269       .  A
C1046      O1047   1.258       .  A
C1046      C2727   1.479       .  S
O1047     Cr1054   1.951       .  S
O1048     Cr1054   1.999       .  S
O1048      C1049   1.263       .  A
C1049      O1050   1.257       .  A
C1049      C1061   1.474       .  S
O1050     Cr1055   1.983       .  S
O1051     Cr1055   2.011       .  S
O1051      C1052   1.269       .  A
C1052      C2685   1.484       .  S
Cr1053     O1056   1.775       .  S
Cr1054     O1056   1.756       .  S
Cr1055     O1056   1.766       .  S
C1057      C1058   1.405       .  A
C1057      C1062   1.411       .  A
C1057      H1064   1.084       .  S
C1058      C1059   1.407       .  A
C1059      C1060   1.395       .  A
C1059      N1066   1.433       .  S
C1060      C1061   1.401       .  A
C1060      H1065   1.084       .  S
C1061      C1062   1.414       .  A
C1062      N1063   1.438       .  S
N1063      H1067   1.046       .  S
N1063      H1068   1.045       .  S
N1066      H1069   1.046       .  S
N1066      H1070   1.045       .  S
C1071      C1072   1.403       .  A
C1071      C1076   1.403       .  A
C1071      H1078   1.084       .  S
C1072      C1073   1.411       .  A
C1073      C1074   1.408       .  A
C1073      N1080   1.432       .  S
C1074      C1075   1.404       .  A
C1074      H1079   1.084       .  S
C1075      C1076   1.411       .  A
C1076      N1077   1.439       .  S
N1077      H1081   1.046       .  S
N1077      H1082   1.045       .  S
N1080      H1083   1.046       .  S
N1080      H1084   1.045       .  S
C1085      C1086   1.407       .  A
C1085      C1090   1.416       .  A
C1085      H1092   1.083       .  S
C1086      C1087   1.406       .  A
C1087      C1088   1.394       .  A
C1087      N1094   1.434       .  S
C1088      C1089   1.406       .  A
C1088      H1093   1.084       .  S
C1089      C1090   1.417       .  A
C1090      N1091   1.437       .  S
N1091      H1095   1.047       .  S
N1091      H1096   1.045       .  S
N1094      H1097   1.045       .  S
N1094      H1098   1.046       .  S
C1099      C1100   1.408       .  A
C1099      C1104   1.398       .  A
C1099      H1106   1.084       .  S
C1100      C1101   1.414       .  A
C1101      C1102   1.406       .  A
C1101      N1108   1.432       .  S
C1102      C1103   1.403       .  A
C1102      H1107   1.084       .  S
C1103      C1104   1.406       .  A
C1104      N1105   1.433       .  S
N1105      H1109   1.045       .  S
N1105      H1110   1.046       .  S
N1108      H1111   1.045       .  S
N1108      H1112   1.046       .  S
C1113      C1114   1.401       .  A
C1113      C1118   1.391       .  A
C1113      H1120   1.085       .  S
C1114      C1115   1.408       .  A
C1115      C1116   1.403       .  A
C1115      N1122   1.432       .  S
C1116      C1117   1.406       .  A
C1116      H1121   1.084       .  S
C1117      C1118   1.415       .  A
C1118      N1119   1.430       .  S
N1119      H1123   1.040       .  S
N1119      H1124   1.046       .  S
N1122      H1125   1.045       .  S
N1122      H1126   1.046       .  S
C1127      C1128   1.403       .  A
C1127      C1132   1.397       .  A
C1127      H1134   1.084       .  S
C1128      C1129   1.414       .  A
C1129      C1130   1.410       .  A
C1129      N1136   1.438       .  S
C1130      C1131   1.407       .  A
C1130      H1135   1.084       .  S
C1131      C1132   1.413       .  A
C1132      N1133   1.439       .  S
N1133      H1137   1.046       .  S
N1133      H1138   1.045       .  S
N1136      H1139   1.045       .  S
N1136      H1140   1.046       .  S
C1141      C1142   1.403       .  A
C1141      C1146   1.393       .  A
C1141      H1148   1.084       .  S
C1142      C1143   1.413       .  A
C1143      C1144   1.407       .  A
C1143      N1150   1.438       .  S
C1144      C1145   1.407       .  A
C1144      H1149   1.083       .  S
C1145      C1146   1.408       .  A
C1146      N1147   1.433       .  S
N1147      H1151   1.046       .  S
N1147      H1152   1.045       .  S
N1150      H1153   1.046       .  S
N1150      H1154   1.045       .  S
C1155      C1156   1.404       .  A
C1155      C1160   1.403       .  A
C1155      H1162   1.084       .  S
C1156      C1157   1.417       .  A
C1157      C1158   1.410       .  A
C1157      N1164   1.438       .  S
C1158      C1159   1.404       .  A
C1158      H1163   1.084       .  S
C1159      C1160   1.413       .  A
C1160      N1161   1.439       .  S
N1161      H1165   1.046       .  S
N1161      H1166   1.046       .  S
N1164      H1167   1.046       .  S
N1164      H1168   1.046       .  S
C1169      C1170   1.405       .  A
C1169      C1174   1.405       .  A
C1169      H1176   1.084       .  S
C1170      C1171   1.414       .  A
C1171      C1172   1.412       .  A
C1171      N1178   1.432       .  S
C1172      C1173   1.407       .  A
C1172      H1177   1.084       .  S
C1173      C1174   1.413       .  A
C1174      N1175   1.438       .  S
N1175      H1179   1.046       .  S
N1175      H1180   1.045       .  S
N1178      H1181   1.046       .  S
N1178      H1182   1.046       .  S
C1183      C1184   1.402       .  A
C1183      C1188   1.398       .  A
C1183      H1190   1.084       .  S
C1184      C1185   1.413       .  A
C1185      C1186   1.405       .  A
C1185      N1192   1.433       .  S
C1186      C1187   1.405       .  A
C1186      H1191   1.084       .  S
C1187      C1188   1.413       .  A
C1188      N1189   1.434       .  S
N1189      H1193   1.046       .  S
N1189      H1194   1.046       .  S
N1192      H1195   1.046       .  S
N1192      H1196   1.046       .  S
C1197      C1198   1.405       .  A
C1197      C1202   1.396       .  A
C1197      H1204   1.084       .  S
C1198      C1199   1.422       .  A
C1199      C1200   1.403       .  A
C1199      N1206   1.432       .  S
C1200      C1201   1.401       .  A
C1200      H1205   1.084       .  S
C1201      C1202   1.407       .  A
C1202      N1203   1.433       .  S
N1203      H1207   1.046       .  S
N1203      H1208   1.046       .  S
N1206      H1209   1.044       .  S
N1206      H1210   1.046       .  S
C1211      C1212   1.401       .  A
C1211      C1216   1.395       .  A
C1211      H1218   1.084       .  S
C1212      C1213   1.413       .  A
C1213      C1214   1.402       .  A
C1213      N1220   1.431       .  S
C1214      C1215   1.408       .  A
C1214      H1219   1.084       .  S
C1215      C1216   1.421       .  A
C1216      N1217   1.433       .  S
N1217      H1221   1.048       .  S
N1217      H1222   1.043       .  S
N1220      H1223   1.051       .  S
N1220      H1224   1.038       .  S
C1225      C1226   1.402       .  A
C1225      C1230   1.396       .  A
C1225      H1232   1.084       .  S
C1226      C1227   1.412       .  A
C1227      C1228   1.409       .  A
C1227      N1234   1.432       .  S
C1228      C1229   1.407       .  A
C1228      H1233   1.084       .  S
C1229      C1230   1.414       .  A
C1230      N1231   1.434       .  S
N1231      H1235   1.046       .  S
N1231      H1236   1.045       .  S
N1234      H1237   1.046       .  S
N1234      H1238   1.045       .  S
C1239      C1240   1.399       .  A
C1239      C1244   1.398       .  A
C1239      H1246   1.084       .  S
C1240      C1241   1.409       .  A
C1241      C1242   1.412       .  A
C1241      N1248   1.435       .  S
C1242      C1243   1.409       .  A
C1242      H1247   1.083       .  S
C1243      C1244   1.416       .  A
C1244      N1245   1.433       .  S
N1245      H1249   1.046       .  S
N1245      H1250   1.046       .  S
N1248      H1251   1.046       .  S
N1248      H1252   1.045       .  S
C1253      C1254   1.404       .  A
C1253      C1258   1.397       .  A
C1253      H1260   1.084       .  S
C1254      C1255   1.412       .  A
C1255      C1256   1.404       .  A
C1255      N1262   1.438       .  S
C1256      C1257   1.403       .  A
C1256      H1261   1.084       .  S
C1257      C1258   1.407       .  A
C1258      N1259   1.434       .  S
N1259      H1263   1.046       .  S
N1259      H1264   1.046       .  S
N1262      H1265   1.046       .  S
N1262      H1266   1.045       .  S
C1267      C1268   1.409       .  A
C1267      C1272   1.412       .  A
C1267      H1274   1.083       .  S
C1268      C1269   1.418       .  A
C1269      C1270   1.390       .  A
C1269      N1276   1.434       .  S
C1270      C1271   1.404       .  A
C1270      H1275   1.084       .  S
C1271      C1272   1.411       .  A
C1272      N1273   1.437       .  S
N1273      H1277   1.046       .  S
N1273      H1278   1.045       .  S
N1276      H1279   1.045       .  S
N1276      H1280   1.045       .  S
C1281      C1282   1.406       .  A
C1281      C1286   1.400       .  A
C1281      H1288   1.084       .  S
C1282      C1283   1.419       .  A
C1283      C1284   1.395       .  A
C1283      N1290   1.433       .  S
C1284      C1285   1.403       .  A
C1284      H1289   1.084       .  S
C1285      C1286   1.413       .  A
C1286      N1287   1.431       .  S
N1287      H1291   1.046       .  S
N1287      H1292   1.043       .  S
N1290      H1293   1.046       .  S
N1290      H1294   1.044       .  S
C1295      C1296   1.406       .  A
C1295      C1300   1.397       .  A
C1295      H1302   1.084       .  S
C1296      C1297   1.422       .  A
C1297      C1298   1.402       .  A
C1297      N1304   1.433       .  S
C1298      C1299   1.402       .  A
C1298      H1303   1.084       .  S
C1299      C1300   1.406       .  A
C1300      N1301   1.433       .  S
N1301      H1305   1.046       .  S
N1301      H1306   1.045       .  S
N1304      H1307   1.044       .  S
N1304      H1308   1.046       .  S
C1309      C1310   1.406       .  A
C1309      C1314   1.398       .  A
C1309      H1316   1.084       .  S
C1310      C1311   1.419       .  A
C1311      C1312   1.412       .  A
C1311      N1318   1.437       .  S
C1312      C1313   1.403       .  A
C1312      H1317   1.084       .  S
C1313      C1314   1.408       .  A
C1314      N1315   1.433       .  S
N1315      H1319   1.045       .  S
N1315      H1320   1.046       .  S
N1318      H1321   1.046       .  S
N1318      H1322   1.045       .  S
C1323      C1324   1.400       .  A
C1323      C1328   1.393       .  A
C1323      H1330   1.084       .  S
C1324      C1325   1.411       .  A
C1325      C1326   1.404       .  A
C1325      N1332   1.432       .  S
C1326      C1327   1.404       .  A
C1326      H1331   1.084       .  S
C1327      C1328   1.411       .  A
C1328      N1329   1.434       .  S
N1329      H1333   1.046       .  S
N1329      H1334   1.046       .  S
N1332      H1335   1.046       .  S
N1332      H1336   1.046       .  S
C1337      C1338   1.403       .  A
C1337      C1342   1.400       .  A
C1337      H1344   1.084       .  S
C1338      C1339   1.413       .  A
C1339      C1340   1.408       .  A
C1339      N1346   1.433       .  S
C1340      C1341   1.405       .  A
C1340      H1345   1.084       .  S
C1341      C1342   1.411       .  A
C1342      N1343   1.433       .  S
N1343      H1347   1.045       .  S
N1343      H1348   1.046       .  S
N1346      H1349   1.046       .  S
N1346      H1350   1.045       .  S
C1351      C1352   1.401       .  A
C1351      C1356   1.393       .  A
C1351      H1358   1.085       .  S
C1352      C1353   1.410       .  A
C1353      C1354   1.404       .  A
C1353      N1360   1.438       .  S
C1354      C1355   1.404       .  A
C1354      H1359   1.084       .  S
C1355      C1356   1.413       .  A
C1356      N1357   1.433       .  S
N1357      H1361   1.046       .  S
N1357      H1362   1.043       .  S
N1360      H1363   1.045       .  S
N1360      H1364   1.046       .  S
C1365      C1366   1.404       .  A
C1365      C1370   1.394       .  A
C1365      H1372   1.084       .  S
C1366      C1367   1.415       .  A
C1367      C1368   1.409       .  A
C1367      N1374   1.438       .  S
C1368      C1369   1.408       .  A
C1368      H1373   1.083       .  S
C1369      C1370   1.420       .  A
C1370      N1371   1.433       .  S
N1371      H1375   1.046       .  S
N1371      H1376   1.045       .  S
N1374      H1377   1.045       .  S
N1374      H1378   1.046       .  S
C1379      C1380   1.407       .  A
C1379      C1384   1.407       .  A
C1379      H1386   1.083       .  S
C1380      C1381   1.417       .  A
C1381      C1382   1.400       .  A
C1381      N1388   1.439       .  S
C1382      C1383   1.402       .  A
C1382      H1387   1.084       .  S
C1383      C1384   1.411       .  A
C1384      N1385   1.433       .  S
N1385      H1389   1.045       .  S
N1385      H1390   1.046       .  S
N1388      H1391   1.046       .  S
N1388      H1392   1.045       .  S
C1393      C1394   1.405       .  A
C1393      C1398   1.410       .  A
C1393      H1400   1.084       .  S
C1394      C1395   1.409       .  A
C1395      C1396   1.392       .  A
C1395      N1402   1.440       .  S
C1396      C1397   1.400       .  A
C1396      H1401   1.083       .  S
C1397      C1398   1.413       .  A
C1398      N1399   1.437       .  S
N1399      H1403   1.045       .  S
N1399      H1404   1.046       .  S
N1402      H1405   1.045       .  S
N1402      H1406   1.047       .  S
C1407      C1408   1.404       .  A
C1407      C1412   1.396       .  A
C1407      H1414   1.084       .  S
C1408      C1409   1.415       .  A
C1409      C1410   1.407       .  A
C1409      N1416   1.432       .  S
C1410      C1411   1.400       .  A
C1410      H1415   1.082       .  S
C1411      C1412   1.404       .  A
C1412      N1413   1.432       .  S
N1413      H1417   1.046       .  S
N1413      H1418   1.045       .  S
N1416      H1419   1.045       .  S
N1416      H1420   1.046       .  S
C1421      C1422   1.411       .  A
C1421      C1426   1.415       .  A
C1421      H1428   1.084       .  S
C1422      C1423   1.406       .  A
C1423      C1424   1.394       .  A
C1423      N1430   1.433       .  S
C1424      C1425   1.401       .  A
C1424      H1429   1.081       .  S
C1425      C1426   1.409       .  A
C1426      N1427   1.437       .  S
N1427      H1431   1.046       .  S
N1427      H1432   1.045       .  S
N1430      H1433   1.046       .  S
N1430      H1434   1.045       .  S
C1435      C1436   1.401       .  A
C1435      C1440   1.404       .  A
C1435      H1442   1.084       .  S
C1436      C1437   1.403       .  A
C1437      C1438   1.403       .  A
C1437      N1444   1.432       .  S
C1438      C1439   1.406       .  A
C1438      H1443   1.083       .  S
C1439      C1440   1.413       .  A
C1440      N1441   1.438       .  S
N1441      H1445   1.046       .  S
N1441      H1446   1.045       .  S
N1444      H1447   1.045       .  S
N1444      H1448   1.046       .  S
C1449      C1450   1.408       .  A
C1449      C1454   1.412       .  A
C1449      H1456   1.083       .  S
C1450      C1451   1.417       .  A
C1451      C1452   1.406       .  A
C1451      N1458   1.433       .  S
C1452      C1453   1.405       .  A
C1452      H1457   1.084       .  S
C1453      C1454   1.415       .  A
C1454      N1455   1.432       .  S
N1455      H1459   1.045       .  S
N1455      H1460   1.046       .  S
N1458      H1461   1.046       .  S
N1458      H1462   1.045       .  S
C1463      C1464   1.412       .  A
C1463      C1468   1.406       .  A
C1463      H1470   1.083       .  S
C1464      C1465   1.421       .  A
C1465      C1466   1.402       .  A
C1465      N1472   1.432       .  S
C1466      C1467   1.403       .  A
C1466      H1471   1.084       .  S
C1467      C1468   1.408       .  A
C1468      N1469   1.438       .  S
N1469      H1473   1.045       .  S
N1469      H1474   1.046       .  S
N1472      H1475   1.046       .  S
N1472      H1476   1.044       .  S
C1477      C1478   1.408       .  A
C1477      C1482   1.410       .  A
C1477      H1484   1.083       .  S
C1478      C1479   1.414       .  A
C1479      C1480   1.395       .  A
C1479      N1486   1.434       .  S
C1480      C1481   1.405       .  A
C1480      H1485   1.084       .  S
C1481      C1482   1.413       .  A
C1482      N1483   1.432       .  S
N1483      H1487   1.046       .  S
N1483      H1488   1.045       .  S
N1486      H1489   1.047       .  S
N1486      H1490   1.045       .  S
C1491      C1492   1.409       .  A
C1491      C1496   1.399       .  A
C1491      H1498   1.084       .  S
C1492      C1493   1.408       .  A
C1493      C1494   1.404       .  A
C1493      N1500   1.432       .  S
C1494      C1495   1.409       .  A
C1494      H1499   1.084       .  S
C1495      C1496   1.408       .  A
C1496      N1497   1.433       .  S
N1497      H1501   1.046       .  S
N1497      H1502   1.046       .  S
N1500      H1503   1.046       .  S
N1500      H1504   1.045       .  S
C1505      C1506   1.407       .  A
C1505      C1510   1.407       .  A
C1505      H1512   1.084       .  S
C1506      C1507   1.404       .  A
C1507      C1508   1.396       .  A
C1507      N1514   1.433       .  S
C1508      C1509   1.409       .  A
C1508      H1513   1.084       .  S
C1509      C1510   1.413       .  A
C1510      N1511   1.432       .  S
N1511      H1515   1.046       .  S
N1511      H1516   1.045       .  S
N1514      H1517   1.045       .  S
N1514      H1518   1.046       .  S
C1519      C1520   1.404       .  A
C1519      C1524   1.401       .  A
C1519      H1526   1.084       .  S
C1520      C1521   1.418       .  A
C1521      C1522   1.405       .  A
C1521      N1528   1.432       .  S
C1522      C1523   1.407       .  A
C1522      H1527   1.083       .  S
C1523      C1524   1.425       .  A
C1524      N1525   1.434       .  S
N1525      H1529   1.044       .  S
N1525      H1530   1.045       .  S
N1528      H1531   1.044       .  S
N1528      H1532   1.046       .  S
C1533      C1534   1.400       .  A
C1533      C1538   1.398       .  A
C1533      H1540   1.084       .  S
C1534      C1535   1.414       .  A
C1535      C1536   1.408       .  A
C1535      N1542   1.438       .  S
C1536      C1537   1.405       .  A
C1536      H1541   1.083       .  S
C1537      C1538   1.416       .  A
C1538      N1539   1.433       .  S
N1539      H1543   1.046       .  S
N1539      H1544   1.046       .  S
N1542      H1545   1.046       .  S
N1542      H1546   1.046       .  S
C1547      C1548   1.406       .  A
C1547      C1552   1.413       .  A
C1547      H1554   1.083       .  S
C1548      C1549   1.407       .  A
C1549      C1550   1.402       .  A
C1549      N1556   1.438       .  S
C1550      C1551   1.410       .  A
C1550      H1555   1.083       .  S
C1551      C1552   1.416       .  A
C1552      N1553   1.437       .  S
N1553      H1557   1.043       .  S
N1553      H1558   1.048       .  S
N1556      H1559   1.042       .  S
N1556      H1560   1.050       .  S
C1561      C1562   1.410       .  A
C1561      C1566   1.403       .  A
C1561      H1568   1.084       .  S
C1562      C1563   1.408       .  A
C1563      C1564   1.394       .  A
C1563      N1570   1.434       .  S
C1564      C1565   1.410       .  A
C1564      H1569   1.084       .  S
C1565      C1566   1.416       .  A
C1566      N1567   1.432       .  S
N1567      H1571   1.045       .  S
N1567      H1572   1.045       .  S
N1570      H1573   1.046       .  S
N1570      H1574   1.045       .  S
C1575      C1576   1.413       .  A
C1575      C1580   1.398       .  A
C1575      H1582   1.083       .  S
C1576      C1577   1.419       .  A
C1577      C1578   1.406       .  A
C1577      N1584   1.432       .  S
C1578      C1579   1.407       .  A
C1578      H1583   1.083       .  S
C1579      C1580   1.411       .  A
C1580      N1581   1.433       .  S
N1581      H1585   1.043       .  S
N1581      H1586   1.047       .  S
N1584      H1587   1.046       .  S
N1584      H1588   1.045       .  S
C1589      C1590   1.409       .  A
C1589      C1594   1.410       .  A
C1589      H1596   1.084       .  S
C1590      C1591   1.421       .  A
C1591      C1592   1.403       .  A
C1591      N1598   1.433       .  S
C1592      C1593   1.406       .  A
C1592      H1597   1.084       .  S
C1593      C1594   1.421       .  A
C1594      N1595   1.432       .  S
N1595      H1599   1.044       .  S
N1595      H1600   1.046       .  S
N1598      H1601   1.044       .  S
N1598      H1602   1.045       .  S
C1603      C1604   1.401       .  A
C1603      C1608   1.402       .  A
C1603      H1610   1.084       .  S
C1604      C1605   1.420       .  A
C1605      C1606   1.391       .  A
C1605      N1612   1.434       .  S
C1606      C1607   1.393       .  A
C1606      H1611   1.083       .  S
C1607      C1608   1.406       .  A
C1608      N1609   1.437       .  S
N1609      H1613   1.045       .  S
N1609      H1614   1.046       .  S
N1612      H1615   1.045       .  S
N1612      H1616   1.045       .  S
C1617      C1618   1.402       .  A
C1617      C1622   1.399       .  A
C1617      H1624   1.085       .  S
C1618      C1619   1.410       .  A
C1619      C1620   1.410       .  A
C1619      N1626   1.437       .  S
C1620      C1621   1.405       .  A
C1620      H1625   1.084       .  S
C1621      C1622   1.407       .  A
C1622      N1623   1.432       .  S
N1623      H1627   1.046       .  S
N1623      H1628   1.045       .  S
N1626      H1629   1.045       .  S
N1626      H1630   1.046       .  S
C1631      C1632   1.404       .  A
C1631      C1636   1.412       .  A
C1631      H1638   1.084       .  S
C1632      C1633   1.404       .  A
C1633      C1634   1.401       .  A
C1633      N1640   1.438       .  S
C1634      C1635   1.407       .  A
C1634      H1639   1.084       .  S
C1635      C1636   1.413       .  A
C1636      N1637   1.436       .  S
N1637      H1641   1.046       .  S
N1637      H1642   1.044       .  S
N1640      H1643   1.046       .  S
N1640      H1644   1.045       .  S
C1645      C1646   1.407       .  A
C1645      C1650   1.410       .  A
C1645      H1652   1.084       .  S
C1646      C1647   1.412       .  A
C1647      C1648   1.400       .  A
C1647      N1654   1.433       .  S
C1648      C1649   1.398       .  A
C1648      H1653   1.085       .  S
C1649      C1650   1.408       .  A
C1650      N1651   1.437       .  S
N1651      H1655   1.047       .  S
N1651      H1656   1.045       .  S
N1654      H1657   1.046       .  S
N1654      H1658   1.045       .  S
C1659      C1660   1.408       .  A
C1659      C1664   1.408       .  A
C1659      H1666   1.084       .  S
C1660      C1661   1.409       .  A
C1661      C1662   1.404       .  A
C1661      N1668   1.432       .  S
C1662      C1663   1.408       .  A
C1662      H1667   1.084       .  S
C1663      C1664   1.411       .  A
C1664      N1665   1.432       .  S
N1665      H1669   1.047       .  S
N1665      H1670   1.044       .  S
N1668      H1671   1.046       .  S
N1668      H1672   1.046       .  S
C1673      C1674   1.410       .  A
C1673      C1678   1.395       .  A
C1673      H1680   1.084       .  S
C1674      C1675   1.411       .  A
C1675      C1676   1.407       .  A
C1675      N1682   1.432       .  S
C1676      C1677   1.406       .  A
C1676      H1681   1.082       .  S
C1677      C1678   1.407       .  A
C1678      N1679   1.433       .  S
N1679      H1683   1.046       .  S
N1679      H1684   1.044       .  S
N1682      H1685   1.046       .  S
N1682      H1686   1.045       .  S
C1687      C1688   1.400       .  A
C1687      C1692   1.399       .  A
C1687      H1694   1.084       .  S
C1688      C1689   1.411       .  A
C1689      C1690   1.405       .  A
C1689      N1696   1.433       .  S
C1690      C1691   1.406       .  A
C1690      H1695   1.084       .  S
C1691      C1692   1.415       .  A
C1692      N1693   1.433       .  S
N1693      H1697   1.046       .  S
N1693      H1698   1.046       .  S
N1696      H1699   1.045       .  S
N1696      H1700   1.046       .  S
C1701      C1702   1.400       .  A
C1701      C1706   1.402       .  A
C1701      H1708   1.084       .  S
C1702      C1703   1.416       .  A
C1703      C1704   1.396       .  A
C1703      N1710   1.433       .  S
C1704      C1705   1.402       .  A
C1704      H1709   1.084       .  S
C1705      C1706   1.412       .  A
C1706      N1707   1.438       .  S
N1707      H1711   1.046       .  S
N1707      H1712   1.045       .  S
N1710      H1713   1.047       .  S
N1710      H1714   1.043       .  S
C1715      C1716   1.404       .  A
C1715      C1720   1.409       .  A
C1715      H1722   1.084       .  S
C1716      C1717   1.411       .  A
C1717      C1718   1.399       .  A
C1717      N1724   1.433       .  S
C1718      C1719   1.403       .  A
C1718      H1723   1.084       .  S
C1719      C1720   1.417       .  A
C1720      N1721   1.437       .  S
N1721      H1725   1.045       .  S
N1721      H1726   1.046       .  S
N1724      H1727   1.046       .  S
N1724      H1728   1.046       .  S
C1729      C1730   1.408       .  A
C1729      C1734   1.394       .  A
C1729      H1736   1.084       .  S
C1730      C1731   1.420       .  A
C1731      C1732   1.403       .  A
C1731      N1738   1.432       .  S
C1732      C1733   1.405       .  A
C1732      H1737   1.084       .  S
C1733      C1734   1.416       .  A
C1734      N1735   1.433       .  S
N1735      H1739   1.044       .  S
N1735      H1740   1.045       .  S
N1738      H1741   1.046       .  S
N1738      H1742   1.043       .  S
C1743      C1744   1.404       .  A
C1743      C1748   1.399       .  A
C1743      H1750   1.084       .  S
C1744      C1745   1.409       .  A
C1745      C1746   1.401       .  A
C1745      N1752   1.433       .  S
C1746      C1747   1.407       .  A
C1746      H1751   1.085       .  S
C1747      C1748   1.410       .  A
C1748      N1749   1.432       .  S
N1749      H1753   1.046       .  S
N1749      H1754   1.045       .  S
N1752      H1755   1.044       .  S
N1752      H1756   1.047       .  S
C1757      C1758   1.403       .  A
C1757      C1762   1.400       .  A
C1757      H1764   1.084       .  S
C1758      C1759   1.412       .  A
C1759      C1760   1.406       .  A
C1759      N1766   1.435       .  S
C1760      C1761   1.399       .  A
C1760      H1765   1.084       .  S
C1761      C1762   1.404       .  A
C1762      N1763   1.433       .  S
N1763      H1767   1.046       .  S
N1763      H1768   1.045       .  S
N1766      H1769   1.045       .  S
N1766      H1770   1.046       .  S
C1771      C1772   1.402       .  A
C1771      C1776   1.394       .  A
C1771      H1778   1.080       .  S
C1772      C1773   1.409       .  A
C1773      C1774   1.406       .  A
C1773      N1780   1.437       .  S
C1774      C1775   1.404       .  A
C1774      H1779   1.084       .  S
C1775      C1776   1.399       .  A
C1776      N1777   1.432       .  S
N1777      H1781   1.045       .  S
N1777      H1782   1.046       .  S
N1780      H1783   1.044       .  S
N1780      H1784   1.046       .  S
C1785      C1786   1.406       .  A
C1785      C1790   1.407       .  A
C1785      H1792   1.084       .  S
C1786      C1787   1.406       .  A
C1787      C1788   1.394       .  A
C1787      N1794   1.434       .  S
C1788      C1789   1.403       .  A
C1788      H1793   1.085       .  S
C1789      C1790   1.409       .  A
C1790      N1791   1.437       .  S
N1791      H1795   1.046       .  S
N1791      H1796   1.045       .  S
N1794      H1797   1.046       .  S
N1794      H1798   1.046       .  S
C1799      C1800   1.405       .  A
C1799      C1804   1.405       .  A
C1799      H1806   1.084       .  S
C1800      C1801   1.415       .  A
C1801      C1802   1.408       .  A
C1801      N1808   1.432       .  S
C1802      C1803   1.405       .  A
C1802      H1807   1.084       .  S
C1803      C1804   1.414       .  A
C1804      N1805   1.433       .  S
N1805      H1809   1.046       .  S
N1805      H1810   1.045       .  S
N1808      H1811   1.045       .  S
N1808      H1812   1.046       .  S
C1813      C1814   1.409       .  A
C1813      C1818   1.407       .  A
C1813      H1820   1.083       .  S
C1814      C1815   1.407       .  A
C1815      C1816   1.402       .  A
C1815      N1822   1.432       .  S
C1816      C1817   1.412       .  A
C1816      H1821   1.084       .  S
C1817      C1818   1.413       .  A
C1818      N1819   1.438       .  S
N1819      H1823   1.046       .  S
N1819      H1824   1.045       .  S
N1822      H1825   1.046       .  S
N1822      H1826   1.045       .  S
C1827      C1828   1.399       .  A
C1827      C1832   1.398       .  A
C1827      H1834   1.084       .  S
C1828      C1829   1.403       .  A
C1829      C1830   1.400       .  A
C1829      N1836   1.433       .  S
C1830      C1831   1.411       .  A
C1830      H1835   1.084       .  S
C1831      C1832   1.421       .  A
C1832      N1833   1.432       .  S
N1833      H1837   1.044       .  S
N1833      H1838   1.046       .  S
N1836      H1839   1.046       .  S
N1836      H1840   1.046       .  S
C1841      C1842   1.410       .  A
C1841      C1846   1.400       .  A
C1841      H1848   1.083       .  S
C1842      C1843   1.408       .  A
C1843      C1844   1.404       .  A
C1843      N1850   1.432       .  S
C1844      C1845   1.406       .  A
C1844      H1849   1.084       .  S
C1845      C1846   1.406       .  A
C1846      N1847   1.439       .  S
N1847      H1851   1.045       .  S
N1847      H1852   1.046       .  S
N1850      H1853   1.042       .  S
N1850      H1854   1.048       .  S
C1855      C1856   1.407       .  A
C1855      C1860   1.404       .  A
C1855      H1862   1.083       .  S
C1856      C1857   1.421       .  A
C1857      C1858   1.402       .  A
C1857      N1864   1.432       .  S
C1858      C1859   1.404       .  A
C1858      H1863   1.084       .  S
C1859      C1860   1.413       .  A
C1860      N1861   1.438       .  S
N1861      H1865   1.045       .  S
N1861      H1866   1.046       .  S
N1864      H1867   1.046       .  S
N1864      H1868   1.045       .  S
C1869      C1870   1.406       .  A
C1869      C1874   1.406       .  A
C1869      H1876   1.084       .  S
C1870      C1871   1.411       .  A
C1871      C1872   1.403       .  A
C1871      N1878   1.433       .  S
C1872      C1873   1.409       .  A
C1872      H1877   1.084       .  S
C1873      C1874   1.413       .  A
C1874      N1875   1.432       .  S
N1875      H1879   1.046       .  S
N1875      H1880   1.046       .  S
N1878      H1881   1.045       .  S
N1878      H1882   1.046       .  S
C1883      C1884   1.402       .  A
C1883      C1888   1.408       .  A
C1883      H1890   1.084       .  S
C1884      C1885   1.410       .  A
C1885      C1886   1.391       .  A
C1885      N1892   1.439       .  S
C1886      C1887   1.396       .  A
C1886      H1891   1.084       .  S
C1887      C1888   1.412       .  A
C1888      N1889   1.437       .  S
N1889      H1893   1.046       .  S
N1889      H1894   1.045       .  S
N1892      H1895   1.044       .  S
N1892      H1896   1.047       .  S
C1897      C1898   1.399       .  A
C1897      C1902   1.399       .  A
C1897      H1904   1.082       .  S
C1898      C1899   1.406       .  A
C1899      C1900   1.403       .  A
C1899      N1906   1.432       .  S
C1900      C1901   1.403       .  A
C1900      H1905   1.084       .  S
C1901      C1902   1.408       .  A
C1902      N1903   1.433       .  S
N1903      H1907   1.045       .  S
N1903      H1908   1.046       .  S
N1906      H1909   1.045       .  S
N1906      H1910   1.045       .  S
C1911      C1912   1.403       .  A
C1911      C1916   1.399       .  A
C1911      H1918   1.084       .  S
C1912      C1913   1.414       .  A
C1913      C1914   1.409       .  A
C1913      N1920   1.433       .  S
C1914      C1915   1.408       .  A
C1914      H1919   1.084       .  S
C1915      C1916   1.421       .  A
C1916      N1917   1.433       .  S
N1917      H1921   1.047       .  S
N1917      H1922   1.043       .  S
N1920      H1923   1.049       .  S
N1920      H1924   1.040       .  S
C1925      C1926   1.408       .  A
C1925      C1930   1.405       .  A
C1925      H1932   1.084       .  S
C1926      C1927   1.405       .  A
C1927      C1928   1.388       .  A
C1927      N1934   1.432       .  S
C1928      C1929   1.400       .  A
C1928      H1933   1.083       .  S
C1929      C1930   1.403       .  A
C1930      N1931   1.431       .  S
N1931      H1935   1.038       .  S
N1931      H1936   1.050       .  S
N1934      H1937   1.046       .  S
N1934      H1938   1.046       .  S
C1939      C1940   1.402       .  A
C1939      C1944   1.394       .  A
C1939      H1946   1.084       .  S
C1940      C1941   1.415       .  A
C1941      C1942   1.409       .  A
C1941      N1948   1.438       .  S
C1942      C1943   1.402       .  A
C1942      H1947   1.084       .  S
C1943      C1944   1.413       .  A
C1944      N1945   1.434       .  S
N1945      H1949   1.040       .  S
N1945      H1950   1.047       .  S
N1948      H1951   1.046       .  S
N1948      H1952   1.045       .  S
C1953      C1954   1.402       .  A
C1953      C1958   1.392       .  A
C1953      H1960   1.085       .  S
C1954      C1955   1.412       .  A
C1955      C1956   1.408       .  A
C1955      N1962   1.432       .  S
C1956      C1957   1.409       .  A
C1956      H1961   1.084       .  S
C1957      C1958   1.407       .  A
C1958      N1959   1.433       .  S
N1959      H1963   1.046       .  S
N1959      H1964   1.045       .  S
N1962      H1965   1.046       .  S
N1962      H1966   1.045       .  S
C1967      C1968   1.401       .  A
C1967      C1972   1.389       .  A
C1967      H1974   1.085       .  S
C1968      C1969   1.406       .  A
C1969      C1970   1.406       .  A
C1969      N1976   1.431       .  S
C1970      C1971   1.408       .  A
C1970      H1975   1.084       .  S
C1971      C1972   1.418       .  A
C1972      N1973   1.433       .  S
N1973      H1977   1.046       .  S
N1973      H1978   1.042       .  S
N1976      H1979   1.046       .  S
N1976      H1980   1.045       .  S
C1981      C1982   1.404       .  A
C1981      C1986   1.407       .  A
C1981      H1988   1.083       .  S
C1982      C1983   1.414       .  A
C1983      C1984   1.394       .  A
C1983      N1990   1.440       .  S
C1984      C1985   1.398       .  A
C1984      H1989   1.084       .  S
C1985      C1986   1.410       .  A
C1986      N1987   1.437       .  S
N1987      H1991   1.045       .  S
N1987      H1992   1.046       .  S
N1990      H1993   1.045       .  S
N1990      H1994   1.046       .  S
C1995      C1996   1.400       .  A
C1995      C2000   1.394       .  A
C1995      H2002   1.085       .  S
C1996      C1997   1.413       .  A
C1997      C1998   1.407       .  A
C1997      N2004   1.438       .  S
C1998      C1999   1.401       .  A
C1998      H2003   1.084       .  S
C1999      C2000   1.406       .  A
C2000      N2001   1.434       .  S
N2001      H2005   1.045       .  S
N2001      H2006   1.046       .  S
N2004      H2007   1.045       .  S
N2004      H2008   1.046       .  S
C2009      C2010   1.408       .  A
C2009      C2014   1.411       .  A
C2009      H2016   1.084       .  S
C2010      C2011   1.413       .  A
C2011      C2012   1.403       .  A
C2011      N2018   1.433       .  S
C2012      C2013   1.408       .  A
C2012      H2017   1.084       .  S
C2013      C2014   1.414       .  A
C2014      N2015   1.432       .  S
N2015      H2019   1.046       .  S
N2015      H2020   1.046       .  S
N2018      H2021   1.046       .  S
N2018      H2022   1.045       .  S
C2023      C2024   1.413       .  A
C2023      C2028   1.409       .  A
C2023      H2030   1.083       .  S
C2024      C2025   1.412       .  A
C2025      C2026   1.403       .  A
C2025      N2032   1.439       .  S
C2026      C2027   1.411       .  A
C2026      H2031   1.083       .  S
C2027      C2028   1.410       .  A
C2028      N2029   1.437       .  S
N2029      H2033   1.044       .  S
N2029      H2034   1.047       .  S
N2032      H2035   1.048       .  S
N2032      H2036   1.043       .  S
C2037      C2038   1.405       .  A
C2037      C2042   1.405       .  A
C2037      H2044   1.083       .  S
C2038      C2039   1.415       .  A
C2039      C2040   1.402       .  A
C2039      N2046   1.433       .  S
C2040      C2041   1.403       .  A
C2040      H2045   1.084       .  S
C2041      C2042   1.412       .  A
C2042      N2043   1.438       .  S
N2043      H2047   1.045       .  S
N2043      H2048   1.046       .  S
N2046      H2049   1.046       .  S
N2046      H2050   1.045       .  S
C2051      C2052   1.411       .  A
C2051      C2056   1.395       .  A
C2051      H2058   1.083       .  S
C2052      C2053   1.419       .  A
C2053      C2054   1.404       .  A
C2053      N2060   1.432       .  S
C2054      C2055   1.406       .  A
C2054      H2059   1.084       .  S
C2055      C2056   1.412       .  A
C2056      N2057   1.434       .  S
N2057      H2061   1.047       .  S
N2057      H2062   1.042       .  S
N2060      H2063   1.046       .  S
N2060      H2064   1.045       .  S
C2065      C2066   1.406       .  A
C2065      C2070   1.400       .  A
C2065      H2072   1.084       .  S
C2066      C2067   1.421       .  A
C2067      C2068   1.400       .  A
C2067      N2074   1.432       .  S
C2068      C2069   1.403       .  A
C2068      H2073   1.084       .  S
C2069      C2070   1.411       .  A
C2070      N2071   1.433       .  S
N2071      H2075   1.046       .  S
N2071      H2076   1.046       .  S
N2074      H2077   1.044       .  S
N2074      H2078   1.047       .  S
C2079      C2080   1.405       .  A
C2079      C2084   1.402       .  A
C2079      H2086   1.084       .  S
C2080      C2081   1.416       .  A
C2081      C2082   1.406       .  A
C2081      N2088   1.438       .  S
C2082      C2083   1.404       .  A
C2082      H2087   1.084       .  S
C2083      C2084   1.410       .  A
C2084      N2085   1.433       .  S
N2085      H2089   1.045       .  S
N2085      H2090   1.046       .  S
N2088      H2091   1.047       .  S
N2088      H2092   1.044       .  S
C2093      C2094   1.403       .  A
C2093      C2098   1.398       .  A
C2093      H2100   1.084       .  S
C2094      C2095   1.416       .  A
C2095      C2096   1.395       .  A
C2095      N2102   1.434       .  S
C2096      C2097   1.405       .  A
C2096      H2101   1.084       .  S
C2097      C2098   1.421       .  A
C2098      N2099   1.433       .  S
N2099      H2103   1.044       .  S
N2099      H2104   1.046       .  S
N2102      H2105   1.043       .  S
N2102      H2106   1.046       .  S
C2107      C2108   1.401       .  A
C2107      C2112   1.400       .  A
C2107      H2114   1.084       .  S
C2108      C2109   1.419       .  A
C2109      C2110   1.403       .  A
C2109      N2116   1.439       .  S
C2110      C2111   1.401       .  A
C2110      H2115   1.084       .  S
C2111      C2112   1.414       .  A
C2112      N2113   1.433       .  S
N2113      H2117   1.045       .  S
N2113      H2118   1.046       .  S
N2116      H2119   1.046       .  S
N2116      H2120   1.046       .  S
C2121      C2122   1.407       .  A
C2121      C2126   1.400       .  A
C2121      H2128   1.083       .  S
C2122      C2123   1.414       .  A
C2123      C2124   1.413       .  A
C2123      N2130   1.437       .  S
C2124      C2125   1.409       .  A
C2124      H2129   1.083       .  S
C2125      C2126   1.416       .  A
C2126      N2127   1.439       .  S
N2127      H2131   1.045       .  S
N2127      H2132   1.046       .  S
N2130      H2133   1.045       .  S
N2130      H2134   1.046       .  S
C2135      C2136   1.406       .  A
C2135      C2140   1.408       .  A
C2135      H2142   1.084       .  S
C2136      C2137   1.404       .  A
C2137      C2138   1.396       .  A
C2137      N2144   1.433       .  S
C2138      C2139   1.409       .  A
C2138      H2143   1.083       .  S
C2139      C2140   1.413       .  A
C2140      N2141   1.432       .  S
N2141      H2145   1.045       .  S
N2141      H2146   1.047       .  S
N2144      H2147   1.045       .  S
N2144      H2148   1.046       .  S
C2149      C2150   1.404       .  A
C2149      C2154   1.401       .  A
C2149      H2156   1.084       .  S
C2150      C2151   1.418       .  A
C2151      C2152   1.414       .  A
C2151      N2158   1.438       .  S
C2152      C2153   1.408       .  A
C2152      H2157   1.083       .  S
C2153      C2154   1.416       .  A
C2154      N2155   1.433       .  S
N2155      H2159   1.046       .  S
N2155      H2160   1.046       .  S
N2158      H2161   1.046       .  S
N2158      H2162   1.045       .  S
C2163      C2164   1.403       .  A
C2163      C2168   1.408       .  A
C2163      H2170   1.083       .  S
C2164      C2165   1.412       .  A
C2165      C2166   1.397       .  A
C2165      N2172   1.440       .  S
C2166      C2167   1.403       .  A
C2166      H2171   1.084       .  S
C2167      C2168   1.413       .  A
C2168      N2169   1.436       .  S
N2169      H2173   1.046       .  S
N2169      H2174   1.045       .  S
N2172      H2175   1.046       .  S
N2172      H2176   1.045       .  S
C2177      C2178   1.404       .  A
C2177      C2182   1.409       .  A
C2177      H2184   1.084       .  S
C2178      C2179   1.404       .  A
C2179      C2180   1.392       .  A
C2179      N2186   1.433       .  S
C2180      C2181   1.407       .  A
C2180      H2185   1.083       .  S
C2181      C2182   1.412       .  A
C2182      N2183   1.438       .  S
N2183      H2187   1.045       .  S
N2183      H2188   1.045       .  S
N2186      H2189   1.045       .  S
N2186      H2190   1.046       .  S
C2191      C2192   1.402       .  A
C2191      C2196   1.399       .  A
C2191      H2198   1.083       .  S
C2192      C2193   1.405       .  A
C2193      C2194   1.402       .  A
C2193      N2200   1.438       .  S
C2194      C2195   1.404       .  A
C2194      H2199   1.084       .  S
C2195      C2196   1.407       .  A
C2196      N2197   1.439       .  S
N2197      H2201   1.046       .  S
N2197      H2202   1.045       .  S
N2200      H2203   1.046       .  S
N2200      H2204   1.045       .  S
C2205      C2206   1.400       .  A
C2205      C2210   1.407       .  A
C2205      H2212   1.084       .  S
C2206      C2207   1.411       .  A
C2207      C2208   1.406       .  A
C2207      N2214   1.437       .  S
C2208      C2209   1.399       .  A
C2208      H2213   1.084       .  S
C2209      C2210   1.413       .  A
C2210      N2211   1.438       .  S
N2211      H2215   1.046       .  S
N2211      H2216   1.045       .  S
N2214      H2217   1.046       .  S
N2214      H2218   1.045       .  S
C2219      C2220   1.409       .  A
C2219      C2224   1.410       .  A
C2219      H2226   1.083       .  S
C2220      C2221   1.423       .  A
C2221      C2222   1.402       .  A
C2221      N2228   1.432       .  S
C2222      C2223   1.403       .  A
C2222      H2227   1.084       .  S
C2223      C2224   1.414       .  A
C2224      N2225   1.438       .  S
N2225      H2229   1.046       .  S
N2225      H2230   1.045       .  S
N2228      H2231   1.045       .  S
N2228      H2232   1.045       .  S
C2233      C2234   1.410       .  A
C2233      C2238   1.396       .  A
C2233      H2240   1.083       .  S
C2234      C2235   1.413       .  A
C2235      C2236   1.409       .  A
C2235      N2242   1.432       .  S
C2236      C2237   1.407       .  A
C2236      H2241   1.083       .  S
C2237      C2238   1.412       .  A
C2238      N2239   1.434       .  S
N2239      H2243   1.046       .  S
N2239      H2244   1.043       .  S
N2242      H2245   1.046       .  S
N2242      H2246   1.046       .  S
C2247      C2248   1.406       .  A
C2247      C2252   1.403       .  A
C2247      H2254   1.083       .  S
C2248      C2249   1.418       .  A
C2249      C2250   1.403       .  A
C2249      N2256   1.433       .  S
C2250      C2251   1.400       .  A
C2250      H2255   1.084       .  S
C2251      C2252   1.410       .  A
C2252      N2253   1.433       .  S
N2253      H2257   1.046       .  S
N2253      H2258   1.046       .  S
N2256      H2259   1.046       .  S
N2256      H2260   1.046       .  S
C2261      C2262   1.411       .  A
C2261      C2266   1.405       .  A
C2261      H2268   1.083       .  S
C2262      C2263   1.413       .  A
C2263      C2264   1.411       .  A
C2263      N2270   1.432       .  S
C2264      C2265   1.407       .  A
C2264      H2269   1.083       .  S
C2265      C2266   1.406       .  A
C2266      N2267   1.438       .  S
N2267      H2271   1.045       .  S
N2267      H2272   1.046       .  S
N2270      H2273   1.045       .  S
N2270      H2274   1.046       .  S
C2275      C2276   1.399       .  A
C2275      C2280   1.399       .  A
C2275      H2282   1.084       .  S
C2276      C2277   1.407       .  A
C2277      C2278   1.403       .  A
C2277      N2284   1.432       .  S
C2278      C2279   1.408       .  A
C2278      H2283   1.083       .  S
C2279      C2280   1.416       .  A
C2280      N2281   1.433       .  S
N2281      H2285   1.046       .  S
N2281      H2286   1.045       .  S
N2284      H2287   1.046       .  S
N2284      H2288   1.045       .  S
C2289      C2290   1.408       .  A
C2289      C2294   1.403       .  A
C2289      H2296   1.083       .  S
C2290      C2291   1.420       .  A
C2291      C2292   1.411       .  A
C2291      N2298   1.438       .  S
C2292      C2293   1.405       .  A
C2292      H2297   1.084       .  S
C2293      C2294   1.410       .  A
C2294      N2295   1.433       .  S
N2295      H2299   1.046       .  S
N2295      H2300   1.046       .  S
N2298      H2301   1.045       .  S
N2298      H2302   1.046       .  S
C2303      C2304   1.402       .  A
C2303      C2308   1.402       .  A
C2303      H2310   1.084       .  S
C2304      C2305   1.412       .  A
C2305      C2306   1.412       .  A
C2305      N2312   1.437       .  S
C2306      C2307   1.406       .  A
C2306      H2311   1.084       .  S
C2307      C2308   1.410       .  A
C2308      N2309   1.438       .  S
N2309      H2313   1.045       .  S
N2309      H2314   1.046       .  S
N2312      H2315   1.045       .  S
N2312      H2316   1.046       .  S
C2317      C2318   1.405       .  A
C2317      C2322   1.396       .  A
C2317      H2324   1.084       .  S
C2318      C2319   1.408       .  A
C2319      C2320   1.407       .  A
C2319      N2326   1.431       .  S
C2320      C2321   1.404       .  A
C2320      H2325   1.084       .  S
C2321      C2322   1.403       .  A
C2322      N2323   1.438       .  S
N2323      H2327   1.046       .  S
N2323      H2328   1.045       .  S
N2326      H2329   1.046       .  S
N2326      H2330   1.045       .  S
C2331      C2332   1.408       .  A
C2331      C2336   1.405       .  A
C2331      H2338   1.084       .  S
C2332      C2333   1.408       .  A
C2333      C2334   1.397       .  A
C2333      N2340   1.431       .  S
C2334      C2335   1.403       .  A
C2334      H2339   1.085       .  S
C2335      C2336   1.406       .  A
C2336      N2337   1.432       .  S
N2337      H2341   1.045       .  S
N2337      H2342   1.046       .  S
N2340      H2343   1.046       .  S
N2340      H2344   1.045       .  S
C2345      C2346   1.402       .  A
C2345      C2350   1.395       .  A
C2345      H2352   1.084       .  S
C2346      C2347   1.408       .  A
C2347      C2348   1.393       .  A
C2347      N2354   1.431       .  S
C2348      C2349   1.402       .  A
C2348      H2353   1.084       .  S
C2349      C2350   1.408       .  A
C2350      N2351   1.432       .  S
N2351      H2355   1.047       .  S
N2351      H2356   1.040       .  S
N2354      H2357   1.044       .  S
N2354      H2358   1.046       .  S
C2359      C2360   1.410       .  A
C2359      C2364   1.411       .  A
C2359      H2366   1.084       .  S
C2360      C2361   1.415       .  A
C2361      C2362   1.408       .  A
C2361      N2368   1.438       .  S
C2362      C2363   1.409       .  A
C2362      H2367   1.083       .  S
C2363      C2364   1.412       .  A
C2364      N2365   1.432       .  S
N2365      H2369   1.044       .  S
N2365      H2370   1.046       .  S
N2368      H2371   1.046       .  S
N2368      H2372   1.046       .  S
C2373      C2374   1.407       .  A
C2373      C2378   1.405       .  A
C2373      H2380   1.084       .  S
C2374      C2375   1.416       .  A
C2375      C2376   1.405       .  A
C2375      N2382   1.433       .  S
C2376      C2377   1.403       .  A
C2376      H2381   1.084       .  S
C2377      C2378   1.410       .  A
C2378      N2379   1.432       .  S
N2379      H2383   1.046       .  S
N2379      H2384   1.046       .  S
N2382      H2385   1.046       .  S
N2382      H2386   1.045       .  S
C2387      C2388   1.412       .  A
C2387      C2392   1.404       .  A
C2387      H2394   1.083       .  S
C2388      C2389   1.416       .  A
C2389      C2390   1.394       .  A
C2389      N2396   1.433       .  S
C2390      C2391   1.409       .  A
C2390      H2395   1.084       .  S
C2391      C2392   1.408       .  A
C2392      N2393   1.432       .  S
N2393      H2397   1.045       .  S
N2393      H2398   1.046       .  S
N2396      H2399   1.045       .  S
N2396      H2400   1.045       .  S
C2401      C2402   1.404       .  A
C2401      C2406   1.402       .  A
C2401      H2408   1.084       .  S
C2402      C2403   1.413       .  A
C2403      C2404   1.410       .  A
C2403      N2410   1.438       .  S
C2404      C2405   1.407       .  A
C2404      H2409   1.084       .  S
C2405      C2406   1.411       .  A
C2406      N2407   1.438       .  S
N2407      H2411   1.045       .  S
N2407      H2412   1.046       .  S
N2410      H2413   1.046       .  S
N2410      H2414   1.046       .  S
C2415      C2416   1.408       .  A
C2415      C2420   1.397       .  A
C2415      H2422   1.084       .  S
C2416      C2417   1.415       .  A
C2417      C2418   1.410       .  A
C2417      N2424   1.437       .  S
C2418      C2419   1.406       .  A
C2418      H2423   1.084       .  S
C2419      C2420   1.406       .  A
C2420      N2421   1.433       .  S
N2421      H2425   1.046       .  S
N2421      H2426   1.046       .  S
N2424      H2427   1.046       .  S
N2424      H2428   1.046       .  S
C2429      C2430   1.404       .  A
C2429      C2434   1.405       .  A
C2429      H2436   1.083       .  S
C2430      C2431   1.415       .  A
C2431      C2432   1.401       .  A
C2431      N2438   1.433       .  S
C2432      C2433   1.408       .  A
C2432      H2437   1.083       .  S
C2433      C2434   1.415       .  A
C2434      N2435   1.432       .  S
N2435      H2439   1.046       .  S
N2435      H2440   1.046       .  S
N2438      H2441   1.046       .  S
N2438      H2442   1.044       .  S
C2443      C2444   1.401       .  A
C2443      C2448   1.392       .  A
C2443      H2450   1.083       .  S
C2444      C2445   1.409       .  A
C2445      C2446   1.404       .  A
C2445      N2452   1.438       .  S
C2446      C2447   1.403       .  A
C2446      H2451   1.084       .  S
C2447      C2448   1.408       .  A
C2448      N2449   1.433       .  S
N2449      H2453   1.045       .  S
N2449      H2454   1.046       .  S
N2452      H2455   1.046       .  S
N2452      H2456   1.045       .  S
C2457      C2458   1.400       .  A
C2457      C2462   1.398       .  A
C2457      H2464   1.084       .  S
C2458      C2459   1.409       .  A
C2459      C2460   1.402       .  A
C2459      N2466   1.437       .  S
C2460      C2461   1.399       .  A
C2460      H2465   1.084       .  S
C2461      C2462   1.415       .  A
C2462      N2463   1.434       .  S
N2463      H2467   1.042       .  S
N2463      H2468   1.047       .  S
N2466      H2469   1.046       .  S
N2466      H2470   1.045       .  S
C2471      C2472   1.405       .  A
C2471      C2476   1.409       .  A
C2471      H2478   1.083       .  S
C2472      C2473   1.411       .  A
C2473      C2474   1.402       .  A
C2473      N2480   1.433       .  S
C2474      C2475   1.405       .  A
C2474      H2479   1.084       .  S
C2475      C2476   1.416       .  A
C2476      N2477   1.438       .  S
N2477      H2481   1.046       .  S
N2477      H2482   1.045       .  S
N2480      H2483   1.045       .  S
N2480      H2484   1.045       .  S
C2485      C2486   1.396       .  A
C2485      C2490   1.394       .  A
C2485      H2492   1.083       .  S
C2486      C2487   1.407       .  A
C2487      C2488   1.404       .  A
C2487      N2494   1.438       .  S
C2488      C2489   1.404       .  A
C2488      H2493   1.084       .  S
C2489      C2490   1.407       .  A
C2490      N2491   1.433       .  S
N2491      H2495   1.046       .  S
N2491      H2496   1.046       .  S
N2494      H2497   1.045       .  S
N2494      H2498   1.046       .  S
C2499      C2500   1.401       .  A
C2499      C2504   1.390       .  A
C2499      H2506   1.084       .  S
C2500      C2501   1.409       .  A
C2501      C2502   1.409       .  A
C2501      N2508   1.438       .  S
C2502      C2503   1.409       .  A
C2502      H2507   1.084       .  S
C2503      C2504   1.414       .  A
C2504      N2505   1.434       .  S
N2505      H2509   1.046       .  S
N2505      H2510   1.044       .  S
N2508      H2511   1.046       .  S
N2508      H2512   1.046       .  S
C2513      C2514   1.402       .  A
C2513      C2518   1.407       .  A
C2513      H2520   1.084       .  S
C2514      C2515   1.410       .  A
C2515      C2516   1.399       .  A
C2515      N2522   1.433       .  S
C2516      C2517   1.402       .  A
C2516      H2521   1.084       .  S
C2517      C2518   1.413       .  A
C2518      N2519   1.432       .  S
N2519      H2523   1.042       .  S
N2519      H2524   1.049       .  S
N2522      H2525   1.045       .  S
N2522      H2526   1.046       .  S
C2527      C2528   1.405       .  A
C2527      C2532   1.392       .  A
C2527      H2534   1.084       .  S
C2528      C2529   1.406       .  A
C2529      C2530   1.405       .  A
C2529      N2536   1.438       .  S
C2530      C2531   1.408       .  A
C2530      H2535   1.084       .  S
C2531      C2532   1.402       .  A
C2532      N2533   1.433       .  S
N2533      H2537   1.046       .  S
N2533      H2538   1.046       .  S
N2536      H2539   1.047       .  S
N2536      H2540   1.044       .  S
C2541      C2542   1.401       .  A
C2541      C2546   1.395       .  A
C2541      H2548   1.084       .  S
C2542      C2543   1.413       .  A
C2543      C2544   1.401       .  A
C2543      N2550   1.432       .  S
C2544      C2545   1.399       .  A
C2544      H2549   1.084       .  S
C2545      C2546   1.412       .  A
C2546      N2547   1.440       .  S
N2547      H2551   1.045       .  S
N2547      H2552   1.046       .  S
N2550      H2553   1.044       .  S
N2550      H2554   1.047       .  S
C2555      C2556   1.400       .  A
C2555      C2560   1.389       .  A
C2555      H2562   1.084       .  S
C2556      C2557   1.409       .  A
C2557      C2558   1.411       .  A
C2557      N2564   1.437       .  S
C2558      C2559   1.410       .  A
C2558      H2563   1.084       .  S
C2559      C2560   1.407       .  A
C2560      N2561   1.433       .  S
N2561      H2565   1.046       .  S
N2561      H2566   1.045       .  S
N2564      H2567   1.047       .  S
N2564      H2568   1.044       .  S
C2569      C2570   1.405       .  A
C2569      C2574   1.404       .  A
C2569      H2576   1.083       .  S
C2570      C2571   1.412       .  A
C2571      C2572   1.406       .  A
C2571      N2578   1.432       .  S
C2572      C2573   1.405       .  A
C2572      H2577   1.084       .  S
C2573      C2574   1.416       .  A
C2574      N2575   1.439       .  S
N2575      H2579   1.045       .  S
N2575      H2580   1.046       .  S
N2578      H2581   1.046       .  S
N2578      H2582   1.045       .  S
C2583      C2584   1.409       .  A
C2583      C2588   1.390       .  A
C2583      H2590   1.084       .  S
C2584      C2585   1.416       .  A
C2585      C2586   1.402       .  A
C2585      N2592   1.431       .  S
C2586      C2587   1.407       .  A
C2586      H2591   1.084       .  S
C2587      C2588   1.410       .  A
C2588      N2589   1.434       .  S
N2589      H2593   1.047       .  S
N2589      H2594   1.042       .  S
N2592      H2595   1.040       .  S
N2592      H2596   1.051       .  S
C2597      C2598   1.405       .  A
C2597      C2602   1.402       .  A
C2597      H2604   1.084       .  S
C2598      C2599   1.412       .  A
C2599      C2600   1.401       .  A
C2599      N2606   1.433       .  S
C2600      C2601   1.405       .  A
C2600      H2605   1.084       .  S
C2601      C2602   1.419       .  A
C2602      N2603   1.432       .  S
N2603      H2607   1.044       .  S
N2603      H2608   1.047       .  S
N2606      H2609   1.046       .  S
N2606      H2610   1.045       .  S
C2611      C2612   1.403       .  A
C2611      C2616   1.409       .  A
C2611      H2618   1.084       .  S
C2612      C2613   1.415       .  A
C2613      C2614   1.403       .  A
C2613      N2620   1.433       .  S
C2614      C2615   1.402       .  A
C2614      H2619   1.084       .  S
C2615      C2616   1.416       .  A
C2616      N2617   1.432       .  S
N2617      H2621   1.045       .  S
N2617      H2622   1.046       .  S
N2620      H2623   1.046       .  S
N2620      H2624   1.046       .  S
C2625      C2626   1.406       .  A
C2625      C2630   1.402       .  A
C2625      H2632   1.084       .  S
C2626      C2627   1.408       .  A
C2627      C2628   1.398       .  A
C2627      N2634   1.433       .  S
C2628      C2629   1.404       .  A
C2628      H2633   1.084       .  S
C2629      C2630   1.417       .  A
C2630      N2631   1.433       .  S
N2631      H2635   1.044       .  S
N2631      H2636   1.046       .  S
N2634      H2637   1.047       .  S
N2634      H2638   1.042       .  S
C2639      C2640   1.406       .  A
C2639      C2644   1.405       .  A
C2639      H2646   1.084       .  S
C2640      C2641   1.412       .  A
C2641      C2642   1.401       .  A
C2641      N2648   1.433       .  S
C2642      C2643   1.403       .  A
C2642      H2647   1.084       .  S
C2643      C2644   1.412       .  A
C2644      N2645   1.433       .  S
N2645      H2649   1.045       .  S
N2645      H2650   1.046       .  S
N2648      H2651   1.046       .  S
N2648      H2652   1.046       .  S
C2653      C2654   1.408       .  A
C2653      C2658   1.399       .  A
C2653      H2660   1.084       .  S
C2654      C2655   1.419       .  A
C2655      C2656   1.402       .  A
C2655      N2662   1.430       .  S
C2656      C2657   1.403       .  A
C2656      H2661   1.084       .  S
C2657      C2658   1.409       .  A
C2658      N2659   1.433       .  S
N2659      H2663   1.046       .  S
N2659      H2664   1.045       .  S
N2662      H2665   1.043       .  S
N2662      H2666   1.046       .  S
C2667      C2668   1.407       .  A
C2667      C2672   1.409       .  A
C2667      H2674   1.084       .  S
C2668      C2669   1.408       .  A
C2669      C2670   1.395       .  A
C2669      N2676   1.439       .  S
C2670      C2671   1.406       .  A
C2670      H2675   1.083       .  S
C2671      C2672   1.413       .  A
C2672      N2673   1.432       .  S
N2673      H2677   1.047       .  S
N2673      H2678   1.043       .  S
N2676      H2679   1.043       .  S
N2676      H2680   1.048       .  S
C2681      C2682   1.404       .  A
C2681      C2686   1.404       .  A
C2681      H2688   1.084       .  S
C2682      C2683   1.413       .  A
C2683      C2684   1.403       .  A
C2683      N2690   1.432       .  S
C2684      C2685   1.403       .  A
C2684      H2689   1.084       .  S
C2685      C2686   1.415       .  A
C2686      N2687   1.433       .  S
N2687      H2691   1.046       .  S
N2687      H2692   1.046       .  S
N2690      H2693   1.045       .  S
N2690      H2694   1.046       .  S
C2695      C2696   1.402       .  A
C2695      C2700   1.407       .  A
C2695      H2702   1.084       .  S
C2696      C2697   1.419       .  A
C2697      C2698   1.407       .  A
C2697      N2704   1.438       .  S
C2698      C2699   1.402       .  A
C2698      H2703   1.083       .  S
C2699      C2700   1.419       .  A
C2700      N2701   1.438       .  S
N2701      H2705   1.045       .  S
N2701      H2706   1.046       .  S
N2704      H2707   1.046       .  S
N2704      H2708   1.045       .  S
C2709      C2710   1.402       .  A
C2709      C2714   1.398       .  A
C2709      H2716   1.084       .  S
C2710      C2711   1.412       .  A
C2711      C2712   1.405       .  A
C2711      N2718   1.432       .  S
C2712      C2713   1.406       .  A
C2712      H2717   1.084       .  S
C2713      C2714   1.414       .  A
C2714      N2715   1.433       .  S
N2715      H2719   1.046       .  S
N2715      H2720   1.045       .  S
N2718      H2721   1.046       .  S
N2718      H2722   1.046       .  S
C2723      C2724   1.395       .  A
C2723      C2728   1.389       .  A
C2723      H2730   1.085       .  S
C2724      C2725   1.406       .  A
C2725      C2726   1.408       .  A
C2725      N2732   1.437       .  S
C2726      C2727   1.410       .  A
C2726      H2731   1.083       .  S
C2727      C2728   1.415       .  A
C2728      N2729   1.434       .  S
N2729      H2733   1.045       .  S
N2729      H2734   1.046       .  S
N2732      H2735   1.047       .  S
N2732      H2736   1.043       .  S
C2737      C2738   1.402       .  A
C2737      C2742   1.397       .  A
C2737      H2744   1.084       .  S
C2738      C2739   1.412       .  A
C2739      C2740   1.409       .  A
C2739      N2746   1.432       .  S
C2740      C2741   1.404       .  A
C2740      H2745   1.084       .  S
C2741      C2742   1.410       .  A
C2742      N2743   1.434       .  S
N2743      H2747   1.046       .  S
N2743      H2748   1.046       .  S
N2746      H2749   1.045       .  S
N2746      H2750   1.046       .  S
C2751      C2752   1.404       .  A
C2751      C2756   1.394       .  A
C2751      H2758   1.085       .  S
C2752      C2753   1.410       .  A
C2753      C2754   1.407       .  A
C2753      N2760   1.437       .  S
C2754      C2755   1.402       .  A
C2754      H2759   1.083       .  S
C2755      C2756   1.399       .  A
C2756      N2757   1.432       .  S
N2757      H2761   1.046       .  S
N2757      H2762   1.045       .  S
N2760      H2763   1.046       .  S
N2760      H2764   1.045       .  S
C2765      C2766   1.400       .  A
C2765      C2770   1.399       .  A
C2765      H2772   1.084       .  S
C2766      C2767   1.408       .  A
C2767      C2768   1.395       .  A
C2767      N2774   1.434       .  S
C2768      C2769   1.399       .  A
C2768      H2773   1.082       .  S
C2769      C2770   1.418       .  A
C2770      N2771   1.432       .  S
N2771      H2775   1.048       .  S
N2771      H2776   1.042       .  S
N2774      H2777   1.045       .  S
N2774      H2778   1.046       .  S
C2779      C2780   1.406       .  A
C2779      C2784   1.406       .  A
C2779      H2786   1.084       .  S
C2780      C2781   1.418       .  A
C2781      C2782   1.407       .  A
C2781      N2788   1.438       .  S
C2782      C2783   1.405       .  A
C2782      H2787   1.084       .  S
C2783      C2784   1.411       .  A
C2784      N2785   1.432       .  S
N2785      H2789   1.046       .  S
N2785      H2790   1.045       .  S
N2788      H2791   1.044       .  S
N2788      H2792   1.045       .  S
C2793      C2794   1.401       .  A
C2793      C2798   1.393       .  A
C2793      H2800   1.084       .  S
C2794      C2795   1.418       .  A
C2795      C2796   1.409       .  A
C2795      N2802   1.438       .  S
C2796      C2797   1.406       .  A
C2796      H2801   1.083       .  S
C2797      C2798   1.416       .  A
C2798      N2799   1.434       .  S
N2799      H2803   1.046       .  S
N2799      H2804   1.046       .  S
N2802      H2805   1.045       .  S
N2802      H2806   1.046       .  S
C2807      C2808   1.407       .  A
C2807      C2812   1.409       .  A
C2807      H2814   1.084       .  S
C2808      C2809   1.411       .  A
C2809      C2810   1.402       .  A
C2809      N2816   1.439       .  S
C2810      C2811   1.408       .  A
C2810      H2815   1.083       .  S
C2811      C2812   1.411       .  A
C2812      N2813   1.432       .  S
N2813      H2817   1.046       .  S
N2813      H2818   1.046       .  S
N2816      H2819   1.046       .  S
N2816      H2820   1.045       .  S
C2821      C2822   1.404       .  A
C2821      C2826   1.407       .  A
C2821      H2828   1.084       .  S
C2822      C2823   1.405       .  A
C2823      C2824   1.396       .  A
C2823      N2830   1.433       .  S
C2824      C2825   1.407       .  A
C2824      H2829   1.084       .  S
C2825      C2826   1.416       .  A
C2826      N2827   1.438       .  S
N2827      H2831   1.045       .  S
N2827      H2832   1.046       .  S
N2830      H2833   1.046       .  S
N2830      H2834   1.045       .  S
C2835      C2836   1.412       .  A
C2835      C2840   1.401       .  A
C2835      H2842   1.083       .  S
C2836      C2837   1.410       .  A
C2837      C2838   1.402       .  A
C2837      N2844   1.437       .  S
C2838      C2839   1.412       .  A
C2838      H2843   1.083       .  S
C2839      C2840   1.413       .  A
C2840      N2841   1.432       .  S
N2841      H2845   1.045       .  S
N2841      H2846   1.045       .  S
N2844      H2847   1.045       .  S
N2844      H2848   1.046       .  S
C2849      C2850   1.405       .  A
C2849      C2854   1.411       .  A
C2849      H2856   1.083       .  S
C2850      C2851   1.416       .  A
C2851      C2852   1.402       .  A
C2851      N2858   1.433       .  S
C2852      C2853   1.403       .  A
C2852      H2857   1.084       .  S
C2853      C2854   1.419       .  A
C2854      N2855   1.438       .  S
N2855      H2859   1.039       .  S
N2855      H2860   1.052       .  S
N2858      H2861   1.046       .  S
N2858      H2862   1.045       .  S
C2863      C2864   1.403       .  A
C2863      C2868   1.394       .  A
C2863      H2870   1.084       .  S
C2864      C2865   1.407       .  A
C2865      C2866   1.408       .  A
C2865      N2872   1.432       .  S
C2866      C2867   1.409       .  A
C2866      H2871   1.084       .  S
C2867      C2868   1.407       .  A
C2868      N2869   1.434       .  S
N2869      H2873   1.046       .  S
N2869      H2874   1.046       .  S
N2872      H2875   1.045       .  S
N2872      H2876   1.046       .  S
C2877      C2878   1.400       .  A
C2877      C2882   1.397       .  A
C2877      H2884   1.084       .  S
C2878      C2879   1.413       .  A
C2879      C2880   1.408       .  A
C2879      N2886   1.432       .  S
C2880      C2881   1.402       .  A
C2880      H2885   1.084       .  S
C2881      C2882   1.416       .  A
C2882      N2883   1.434       .  S
N2883      H2887   1.043       .  S
N2883      H2888   1.045       .  S
N2886      H2889   1.045       .  S
N2886      H2890   1.045       .  S
C2891      C2892   1.400       .  A
C2891      C2896   1.387       .  A
C2891      H2898   1.083       .  S
C2892      C2893   1.411       .  A
C2893      C2894   1.413       .  A
C2893      N2900   1.437       .  S
C2894      C2895   1.410       .  A
C2894      H2899   1.084       .  S
C2895      C2896   1.408       .  A
C2896      N2897   1.434       .  S
N2897      H2901   1.046       .  S
N2897      H2902   1.046       .  S
N2900      H2903   1.045       .  S
N2900      H2904   1.045       .  S
C2905      C2906   1.401       .  A
C2905      C2910   1.394       .  A
C2905      H2912   1.084       .  S
C2906      C2907   1.413       .  A
C2907      C2908   1.404       .  A
C2907      N2914   1.437       .  S
C2908      C2909   1.399       .  A
C2908      H2913   1.084       .  S
C2909      C2910   1.404       .  A
C2910      N2911   1.434       .  S
N2911      H2915   1.046       .  S
N2911      H2916   1.046       .  S
N2914      H2917   1.046       .  S
N2914      H2918   1.045       .  S
C2919      C2920   1.404       .  A
C2919      C2924   1.401       .  A
C2919      H2926   1.084       .  S
C2920      C2921   1.418       .  A
C2921      C2922   1.410       .  A
C2921      N2928   1.438       .  S
C2922      C2923   1.406       .  A
C2922      H2927   1.083       .  S
C2923      C2924   1.414       .  A
C2924      N2925   1.433       .  S
N2925      H2929   1.046       .  S
N2925      H2930   1.046       .  S
N2928      H2931   1.046       .  S
N2928      H2932   1.045       .  S
C2933      C2934   1.401       .  A
C2933      C2938   1.408       .  A
C2933      H2940   1.084       .  S
C2934      C2935   1.406       .  A
C2935      C2936   1.395       .  A
C2935      N2942   1.434       .  S
C2936      C2937   1.406       .  A
C2936      H2941   1.084       .  S
C2937      C2938   1.416       .  A
C2938      N2939   1.432       .  S
N2939      H2943   1.045       .  S
N2939      H2944   1.046       .  S
N2942      H2945   1.046       .  S
N2942      H2946   1.046       .  S
C2947      C2948   1.405       .  A
C2947      C2952   1.405       .  A
C2947      H2954   1.084       .  S
C2948      C2949   1.406       .  A
C2949      C2950   1.400       .  A
C2949      N2956   1.433       .  S
C2950      C2951   1.410       .  A
C2950      H2955   1.084       .  S
C2951      C2952   1.411       .  A
C2952      N2953   1.431       .  S
N2953      H2957   1.045       .  S
N2953      H2958   1.045       .  S
N2956      H2959   1.046       .  S
N2956      H2960   1.046       .  S
C2961      C2962   1.405       .  A
C2961      C2966   1.412       .  A
C2961      H2968   1.084       .  S
C2962      C2963   1.413       .  A
C2963      C2964   1.398       .  A
C2963      N2970   1.440       .  S
C2964      C2965   1.405       .  A
C2964      H2969   1.083       .  S
C2965      C2966   1.415       .  A
C2966      N2967   1.432       .  S
N2967      H2971   1.046       .  S
N2967      H2972   1.046       .  S
N2970      H2973   1.048       .  S
N2970      H2974   1.043       .  S
C2975      C2976   1.402       .  A
C2975      C2980   1.397       .  A
C2975      H2982   1.084       .  S
C2976      C2977   1.413       .  A
C2977      C2978   1.409       .  A
C2977      N2984   1.432       .  S
C2978      C2979   1.406       .  A
C2978      H2983   1.084       .  S
C2979      C2980   1.416       .  A
C2980      N2981   1.434       .  S
N2981      H2985   1.045       .  S
N2981      H2986   1.046       .  S
N2984      H2987   1.045       .  S
N2984      H2988   1.046       .  S
C2989      C2990   1.405       .  A
C2989      C2994   1.402       .  A
C2989      H2996   1.084       .  S
C2990      C2991   1.415       .  A
C2991      C2992   1.404       .  A
C2991      N2998   1.439       .  S
C2992      C2993   1.405       .  A
C2992      H2997   1.084       .  S
C2993      C2994   1.411       .  A
C2994      N2995   1.432       .  S
N2995      H2999   1.046       .  S
N2995      H3000   1.045       .  S
N2998      H3001   1.045       .  S
N2998      H3002   1.046       .  S
C3003      C3004   1.398       .  A
C3003      C3008   1.391       .  A
C3003      H3010   1.084       .  S
C3004      C3005   1.410       .  A
C3005      C3006   1.408       .  A
C3005      N3012   1.432       .  S
C3006      C3007   1.405       .  A
C3006      H3011   1.084       .  S
C3007      C3008   1.415       .  A
C3008      N3009   1.431       .  S
N3009      H3013   1.045       .  S
N3009      H3014   1.043       .  S
N3012      H3015   1.046       .  S
N3012      H3016   1.045       .  S
C3017      C3018   1.402       .  A
C3017      C3022   1.388       .  A
C3017      H3024   1.084       .  S
C3018      C3019   1.416       .  A
C3019      C3020   1.410       .  A
C3019      N3026   1.437       .  S
C3020      C3021   1.403       .  A
C3020      H3025   1.084       .  S
C3021      C3022   1.413       .  A
C3022      N3023   1.434       .  S
N3023      H3027   1.044       .  S
N3023      H3028   1.045       .  S
N3026      H3029   1.045       .  S
N3026      H3030   1.046       .  S
C3031      C3032   1.409       .  A
C3031      C3036   1.405       .  A
C3031      H3038   1.084       .  S
C3032      C3033   1.419       .  A
C3033      C3034   1.395       .  A
C3033      N3040   1.433       .  S
C3034      C3035   1.408       .  A
C3034      H3039   1.084       .  S
C3035      C3036   1.418       .  A
C3036      N3037   1.432       .  S
N3037      H3041   1.045       .  S
N3037      H3042   1.045       .  S
N3040      H3043   1.045       .  S
N3040      H3044   1.045       .  S
C3045      C3046   1.409       .  A
C3045      C3050   1.407       .  A
C3045      H3052   1.084       .  S
C3046      C3047   1.408       .  A
C3047      C3048   1.396       .  A
C3047      N3054   1.439       .  S
C3048      C3049   1.403       .  A
C3048      H3053   1.084       .  S
C3049      C3050   1.405       .  A
C3050      N3051   1.432       .  S
N3051      H3055   1.045       .  S
N3051      H3056   1.046       .  S
N3054      H3057   1.046       .  S
N3054      H3058   1.045       .  S
C3059      C3060   1.399       .  A
C3059      C3064   1.399       .  A
C3059      H3066   1.079       .  S
C3060      C3061   1.414       .  A
C3061      C3062   1.396       .  A
C3061      N3068   1.434       .  S
C3062      C3063   1.399       .  A
C3062      H3067   1.083       .  S
C3063      C3064   1.404       .  A
C3064      N3065   1.436       .  S
N3065      H3069   1.045       .  S
N3065      H3070   1.046       .  S
N3068      H3071   1.045       .  S
N3068      H3072   1.044       .  S
