geometry optimzed in LAMMPS
_audit_creation_date              2020-11-30 
_audit_creation_method            'lammps2cif' 
_symmetry_space_group_name_H-M    'P1' 
_symmetry_Int_Tables_number       1 
_symmetry_cell_setting            triclinic 
loop_ 
_symmetry_equiv_pos_as_xyz 
  x,y,z 
_cell_length_a                    65.67261391 
_cell_length_b                    65.82633269085163 
_cell_length_c                    65.88475026221039 
_cell_angle_alpha                 90.1107570658343 
_cell_angle_beta                  89.99661507060996 
_cell_angle_gamma                 89.8619937659655 
loop_ 
_atom_site_label 
_atom_site_type_symbol 
_atom_site_fract_x 
_atom_site_fract_y 
_atom_site_fract_z 
_atom_site_charge 
O1          O  0.47392581  0.08308718  0.48289989    -0.72300
O2          O  0.52405457  0.08164564  0.51685118    -0.73200
O3          O  0.48194997  0.08130271  0.52477040    -0.61900
O4          O  0.51604186  0.08321087  0.47505034    -0.70300
O5          O  0.51847691  0.11673466  0.47652142    -0.69800
O6          O  0.47967290  0.11485349  0.52619168    -0.61100
O7          O  0.52400366  0.11510231  0.52051068    -0.73600
O8          O  0.47400071  0.11671485  0.48199444    -0.72400
Cu9        Cu  0.49896617  0.08136588  0.49985055     1.04600
Cu10       Cu  0.49900090  0.11722190  0.50135274     1.04300
C11         C  0.46597457  0.09970807  0.47681857     0.93900
C12         C  0.53210267  0.09771791  0.52413653     0.93100
C13         C  0.47523675  0.09731255  0.53343445     0.85200
C14         C  0.52309799  0.09978535  0.46798286     0.91500
O15         O  0.16177800  0.39561180  0.51434365    -0.72300
O16         O  0.16211112  0.44441893  0.47848660    -0.73200
O17         O  0.16268187  0.40198237  0.47207711    -0.61900
O18         O  0.16117797  0.43788008  0.52056109    -0.70300
O19         O  0.19479571  0.44038046  0.52125878    -0.69800
O20         O  0.19632143  0.39985112  0.47288234    -0.61100
O21         O  0.19580420  0.44443903  0.47704882    -0.73600
O22         O  0.19534151  0.39594573  0.51741496    -0.72400
Cu23       Cu  0.16099320  0.41993468  0.49630862     1.04600
Cu24       Cu  0.19693688  0.42013198  0.49714740     1.04300
C25         C  0.17802532  0.38814404  0.52196331     0.93900
C26         C  0.17862040  0.45236944  0.47210598     0.93100
C27         C  0.17924582  0.39491092  0.46477769     0.85200
C28         C  0.17728937  0.44514685  0.52855069     0.91500
O29         O  0.47485800  0.72839958  0.52466831    -0.72300
O30         O  0.51340491  0.72599066  0.47470408    -0.73200
O31         O  0.51884758  0.72662842  0.51896765    -0.61900
O32         O  0.46932776  0.72734236  0.48027465    -0.70300
O33         O  0.46998826  0.76095482  0.48197835    -0.69800
O34         O  0.52009782  0.76012857  0.51598379    -0.61100
O35         O  0.51190454  0.75959970  0.47410404    -0.73600
O36         O  0.47821766  0.76186953  0.52396882    -0.72400
Cu37       Cu  0.49404285  0.72572036  0.49967796     1.04600
Cu38       Cu  0.49506077  0.76159249  0.49898227     1.04300
C39         C  0.47120093  0.74595874  0.53242770     0.93900
C40         C  0.51822424  0.74295807  0.46640832     0.93100
C41         C  0.52738078  0.74363386  0.52314273     0.85200
C42         C  0.46182831  0.74465547  0.47535451     0.91500
O43         O  0.80016507  0.44094264  0.52741857    -0.72300
O44         O  0.80365551  0.40356679  0.47679227    -0.73200
O45         O  0.80158539  0.39675253  0.52085933    -0.61900
O46         O  0.80243096  0.44765391  0.48352836    -0.70300
O47         O  0.83591652  0.44790832  0.48751258    -0.69800
O48         O  0.83527979  0.39760281  0.52013360    -0.61100
O49         O  0.83722060  0.40631463  0.47851997    -0.73600
O50         O  0.83381568  0.43919765  0.52896295    -0.72400
Cu51       Cu  0.80055098  0.42218967  0.50206560     1.04600
Cu52       Cu  0.83647158  0.42277350  0.50382547     1.04300
C53         C  0.81696194  0.44555659  0.53623680     0.93900
C54         C  0.82139164  0.39948279  0.46963802     0.93100
C55         C  0.81887001  0.38914949  0.52600466     0.85200
C56         C  0.81982862  0.45587364  0.48017884     0.91500
O57         O  0.51612622  0.39448471  0.19261592    -0.72300
O58         O  0.47806059  0.44431583  0.19057305    -0.73200
O59         O  0.47195872  0.40015455  0.19095093    -0.61900
O60         O  0.52211234  0.43866589  0.19188067    -0.70300
O61         O  0.52329351  0.43544182  0.15844029    -0.69800
O62         O  0.47285709  0.40204619  0.15741020    -0.61100
O63         O  0.48143883  0.44397872  0.15710180    -0.73600
O64         O  0.51475465  0.39343693  0.15901660    -0.72400
Cu65       Cu  0.49702480  0.41942244  0.19285587     1.04600
Cu66       Cu  0.49812488  0.41870311  0.15702028     1.04300
C67         C  0.52084642  0.38587658  0.17578378     0.93900
C68         C  0.47436546  0.45221279  0.17318330     0.93100
C69         C  0.46444371  0.39546039  0.17355863     0.85200
C70         C  0.53063412  0.44275832  0.17482404     0.91500
O71         O  0.47601859  0.40189517  0.80364125    -0.72300
O72         O  0.52612372  0.43980398  0.80389991    -0.73200
O73         O  0.52028837  0.39571155  0.80542095    -0.61900
O74         O  0.48196890  0.44585282  0.80252502    -0.70300
O75         O  0.48342461  0.44694070  0.83610797    -0.69800
O76         O  0.51685488  0.39690017  0.83884513    -0.61100
O77         O  0.52541415  0.43869631  0.83749929    -0.73600
O78         O  0.47476016  0.40523063  0.83708655    -0.72400
Cu79       Cu  0.50113787  0.42074873  0.80251830     1.04600
Cu80       Cu  0.50007192  0.42196649  0.83835051     1.04300
C81         C  0.46728134  0.39816194  0.82063751     0.93900
C82         C  0.53379583  0.44477104  0.82110809     0.93100
C83         C  0.52420919  0.38838861  0.82305687     0.85200
C84         C  0.47717949  0.45441368  0.81939285     0.91500
O85         O  0.02457286  0.58414473  0.01387927    -0.72300
O86         O  0.97318722  0.58483035  0.98201899    -0.73200
O87         O  0.01486391  0.58440362  0.97242704    -0.61900
O88         O  0.98297689  0.58471860  0.02362025    -0.70300
O89         O  0.98099873  0.61832184  0.02365453    -0.69800
O90         O  0.01781433  0.61792679  0.97270830    -0.61100
O91         O  0.97365376  0.61836673  0.97961202    -0.73600
O92         O  0.02515819  0.61767502  0.01653916    -0.72400
Cu93       Cu  0.99888196  0.58358929  0.99800033     1.04600
Cu94       Cu  0.99939891  0.61946002  0.99814901     1.04300
C95         C  0.03310325  0.60025757  0.02043720     0.93900
C96         C  0.96529149  0.60124013  0.97535526     0.93100
C97         C  0.02169445  0.60067069  0.96447059     0.85200
C98         C  0.97667296  0.60115792  0.03177311     0.91500
O99         O  0.69916544  0.90544727  0.02878593    -0.72300
O100        O  0.69724825  0.94317601  0.97861337    -0.73200
O101        O  0.69858697  0.94928571  0.02257292    -0.61900
O102        O  0.69777999  0.89912836  0.98468110    -0.70300
O103        O  0.66422571  0.89882485  0.98808267    -0.69800
O104        O  0.66487643  0.94942477  0.02108016    -0.61100
O105        O  0.66362129  0.94060322  0.97930668    -0.73600
O106        O  0.66552391  0.90773432  0.02999188    -0.72400
Cu107      Cu  0.69954796  0.92424891  0.00360638     1.04600
Cu108      Cu  0.66358262  0.92412025  0.00464546     1.04300
C109        C  0.68223374  0.90131769  0.03756053     0.93900
C110        C  0.67976779  0.94737157  0.97095897     0.93100
C111        C  0.68143434  0.95731666  0.02739407     0.85200
C112        C  0.68045844  0.89102343  0.98077067     0.91500
O113        O  0.02395844  0.25799560  0.01371538    -0.72300
O114        O  0.97262550  0.25954234  0.98199355    -0.73200
O115        O  0.98218707  0.25891965  0.02350567    -0.61900
O116        O  0.01428819  0.25840788  0.97217498    -0.70300
O117        O  0.01591857  0.22479327  0.97207402    -0.69800
O118        O  0.97876986  0.22546246  0.02305908    -0.61100
O119        O  0.97178297  0.22602347  0.97914293    -0.73600
O120        O  0.02299163  0.22443540  0.01598332    -0.72400
Cu121      Cu  0.99829558  0.25966422  0.99788049     1.04600
Cu122      Cu  0.99734370  0.22380370  0.99757949     1.04300
C123        C  0.03172368  0.24140233  0.02003031     0.93900
C124        C  0.96406231  0.24353027  0.97524715     0.93100
C125        C  0.97498607  0.24273339  0.03134199     0.85200
C126        C  0.02041318  0.24191751  0.96394578     0.91500
O127        O  0.30667007  0.89169223  0.97958866    -0.72300
O128        O  0.30740419  0.94216490  0.01694531    -0.73200
O129        O  0.30604166  0.93573550  0.97291992    -0.61900
O130        O  0.30826051  0.89826004  0.02346511    -0.70300
O131        O  0.34184811  0.90104322  0.02223805    -0.69800
O132        O  0.33967383  0.93349103  0.97168463    -0.61100
O133        O  0.34094412  0.94266726  0.01338688    -0.73600
O134        O  0.34039469  0.89177477  0.98077226    -0.72400
Cu135      Cu  0.30571392  0.91696226  0.99824845     1.04600
Cu136      Cu  0.34166763  0.91726634  0.99695649     1.04300
C137        C  0.32382263  0.88360146  0.97486717     0.93900
C138        C  0.32468999  0.95035555  0.02078108     0.93100
C139        C  0.32299982  0.94011415  0.96427432     0.85200
C140        C  0.32589830  0.89421958  0.03086198     0.91500
O141        O  0.98386359  0.94865124  0.65999940    -0.72300
O142        O  0.01613916  0.89750089  0.65992506    -0.73200
O143        O  0.97430168  0.90692358  0.66019425    -0.61900
O144        O  0.02542805  0.93913080  0.65996983    -0.70300
O145        O  0.02534100  0.94163165  0.69351653    -0.69800
O146        O  0.97458519  0.90451493  0.69372196    -0.61100
O147        O  0.01880339  0.89766971  0.69343493    -0.73600
O148        O  0.98151090  0.94858984  0.69355316    -0.72400
Cu149      Cu  0.99989285  0.92302030  0.65906358     1.04600
Cu150      Cu  0.00003127  0.92307189  0.69492403     1.04300
C151        C  0.97757296  0.95689619  0.67637158     0.93900
C152        C  0.02305566  0.88957954  0.67618946     0.93100
C153        C  0.96632852  0.90032616  0.67656634     0.85200
C154        C  0.03342385  0.94582602  0.67630931     0.91500
O155        O  0.98244596  0.94718457  0.34078769    -0.72300
O156        O  0.01517260  0.89608794  0.34019995    -0.73200
O157        O  0.02422041  0.93777928  0.33975714    -0.61900
O158        O  0.97316857  0.90530894  0.34088064    -0.70300
O159        O  0.97283187  0.90280442  0.30734591    -0.69800
O160        O  0.02325446  0.94011963  0.30621840    -0.61100
O161        O  0.01710881  0.89619211  0.30664943    -0.73600
O162        O  0.97929191  0.94703478  0.30732395    -0.72400
Cu163      Cu  0.99873088  0.92157999  0.34137910     1.04600
Cu164      Cu  0.99804631  0.92150891  0.30553735     1.04300
C165        C  0.97564536  0.95537602  0.32460303     0.93900
C166        C  0.02184051  0.88817613  0.32378710     0.93100
C167        C  0.03184738  0.94428971  0.32318242     0.85200
C168        C  0.96494190  0.89860761  0.32464300     0.91500
N169        N  0.61157495  0.81351586  0.58265623    -0.26600
N170        N  0.60375897  0.81192550  0.56432384    -0.34500
C171        C  0.60376223  0.83026172  0.55538305     0.01700
C172        C  0.61244401  0.84400581  0.56871690     0.07800
C173        C  0.61725895  0.83285240  0.58588160    -0.05300
H174        H  0.59760408  0.83340277  0.54048228     0.08400
H175        H  0.62362872  0.83851408  0.59993369     0.09600
Cu176      Cu  0.59202446  0.78476506  0.55441099     0.44200
Cu177      Cu  0.61225497  0.78872535  0.60171605     0.42000
Cu178      Cu  0.58711528  0.74006909  0.58741489     0.43900
N179        N  0.57293576  0.76077121  0.54876218    -0.34000
N180        N  0.56950007  0.74479672  0.56044609    -0.28200
C181        C  0.55313119  0.73478217  0.55263041    -0.04300
C182        C  0.54624522  0.74527393  0.53546049     0.07900
C183        C  0.55932310  0.76144199  0.53371325     0.01700
H184        H  0.54599857  0.72174337  0.55959669     0.09300
H185        H  0.55820333  0.77377885  0.52293068     0.08400
N186        N  0.60802301  0.74372390  0.61214160    -0.35400
N187        N  0.61581366  0.76163946  0.61698525    -0.27600
C188        C  0.62865709  0.75964475  0.63264652    -0.02900
C189        C  0.62957647  0.73951544  0.63833380     0.05800
C190        C  0.61625172  0.72972894  0.62490321     0.03800
H191        H  0.63751529  0.77203270  0.63882814     0.09000
H192        H  0.61292247  0.71365487  0.62436230     0.07800
N193        N  0.62617571  0.02819892  0.57327301    -0.26600
N194        N  0.61373709  0.02867745  0.55763451    -0.34500
C195        C  0.61094556  0.00972147  0.55059576     0.01700
C196        C  0.62225807  0.99650246  0.56249200     0.07800
C197        C  0.63175572  0.00885423  0.57675569    -0.05300
H198        H  0.60022095  0.00579155  0.53877906     0.08400
H199        H  0.64124463  0.00408670  0.58929831     0.09600
Cu200      Cu  0.59865832  0.05498756  0.55023622     0.44200
Cu201      Cu  0.63157448  0.05434001  0.58980680     0.42000
Cu202      Cu  0.59831662  0.10037585  0.58270207     0.43900
N203        N  0.57869362  0.07878403  0.54690901    -0.34000
N204        N  0.57725070  0.09541535  0.55815921    -0.28200
C205        C  0.56061706  0.10597529  0.55155028    -0.04300
C206        C  0.55140491  0.09505834  0.53572166     0.07900
C207        C  0.56348350  0.07811578  0.53346709     0.01700
H208        H  0.55511762  0.11994661  0.55828580     0.09300
H209        H  0.56099560  0.06559740  0.52309031     0.08400
N210        N  0.62269251  0.09768831  0.60443480    -0.35400
N211        N  0.63443520  0.08130291  0.60570308    -0.27600
C212        C  0.64884235  0.08411736  0.61986504    -0.02900
C213        C  0.64640183  0.10304706  0.62846365     0.05800
C214        C  0.62949600  0.11127391  0.61845026     0.03800
H215        H  0.66014947  0.07285521  0.62393015     0.09000
H216        H  0.62290017  0.12613885  0.62097329     0.07800
N217        N  0.88733916  0.51044698  0.61463959    -0.26600
N218        N  0.88701161  0.49208577  0.60675900    -0.34500
C219        C  0.90624076  0.48566241  0.60382741     0.01700
C220        C  0.91938474  0.50090823  0.61024042     0.07800
C221        C  0.90673266  0.51633911  0.61716562    -0.05300
H222        H  0.91019535  0.47123708  0.59700860     0.08400
H223        H  0.91122457  0.53118359  0.62259739     0.09600
Cu224      Cu  0.85969031  0.47951170  0.59788586     0.44200
Cu225      Cu  0.86067252  0.52622549  0.61892506     0.42000
Cu226      Cu  0.81175702  0.50947393  0.59625589     0.43900
N227        N  0.83432004  0.47196625  0.58112157    -0.34000
N228        N  0.81737329  0.48262481  0.57857085    -0.28200
C229        C  0.80699031  0.47413883  0.56276427    -0.04300
C230        C  0.81821398  0.45758853  0.55532626     0.07900
C231        C  0.83514803  0.45686675  0.56758610     0.01700
H232        H  0.79322036  0.48038557  0.55624577     0.09300
H233        H  0.84822840  0.44701136  0.56567465     0.08400
N234        N  0.81503268  0.53470785  0.61667972    -0.35400
N235        N  0.83304205  0.54002683  0.62398128    -0.27600
C236        C  0.83108276  0.55605821  0.63634522    -0.02900
C237        C  0.81090057  0.56175811  0.63721674     0.05800
C238        C  0.80098834  0.54766490  0.62468451     0.03800
H239        H  0.84364068  0.56268232  0.64463115     0.09000
H240        H  0.78482687  0.54698669  0.62159628     0.07800
N241        N  0.10469543  0.52014625  0.59766260    -0.26600
N242        N  0.10461711  0.50120152  0.59127279    -0.34500
C243        C  0.08532848  0.49463270  0.59004348     0.01700
C244        C  0.07244597  0.51024970  0.59616162     0.07800
C245        C  0.08540822  0.52624015  0.60094985    -0.05300
H246        H  0.08109665  0.47959693  0.58495901     0.08400
H247        H  0.08134537  0.54099506  0.60693703     0.09600
Cu248      Cu  0.13129442  0.48634478  0.58418616     0.44200
Cu249      Cu  0.13191937  0.53511949  0.60201015     0.42000
Cu250      Cu  0.18111488  0.51080987  0.58697634     0.43900
N251        N  0.15691657  0.47565715  0.56970500    -0.34000
N252        N  0.17507062  0.48432279  0.56903054    -0.28200
C253        C  0.18634335  0.47422609  0.55484046    -0.04300
C254        C  0.17441407  0.45873599  0.54641466     0.07900
C255        C  0.15608666  0.46028936  0.55645531     0.01700
H256        H  0.20151708  0.47853546  0.55016647     0.09300
H257        H  0.14243720  0.45163107  0.55337400     0.08400
N258        N  0.17822506  0.53677766  0.60648071    -0.35400
N259        N  0.16037160  0.54524139  0.61062613    -0.27600
C260        C  0.16288504  0.56077690  0.62354701    -0.02900
C261        C  0.18326879  0.56263087  0.62830347     0.05800
C262        C  0.19263719  0.54703904  0.61714782     0.03800
H263        H  0.15040353  0.56949438  0.62983860     0.09000
H264        H  0.20867835  0.54330673  0.61694583     0.07800
N265        N  0.61890446  0.50522114  0.88944178    -0.26600
N266        N  0.61081956  0.48696684  0.88934514    -0.34500
C267        C  0.61035042  0.47979691  0.90843236     0.01700
C268        C  0.61860789  0.49441564  0.92123200     0.07800
C269        C  0.62401635  0.51029332  0.90850468    -0.05300
H270        H  0.60365654  0.46543869  0.91273920     0.08400
H271        H  0.63101480  0.52455612  0.91262517     0.09600
Cu272      Cu  0.59885122  0.47538905  0.86287058     0.44200
Cu273      Cu  0.62106763  0.52174780  0.86312856     0.42000
Cu274      Cu  0.59719892  0.50560650  0.81512442     0.43900
N275        N  0.57977073  0.46967109  0.83874281    -0.34000
N276        N  0.57783751  0.48005739  0.82162637    -0.28200
C277        C  0.56147078  0.47233140  0.81149845    -0.04300
C278        C  0.55292042  0.45670791  0.82312266     0.07900
C279        C  0.56509063  0.45569314  0.84006634     0.01700
H280        H  0.55556110  0.47832185  0.79739630     0.09300
H281        H  0.56285940  0.44599035  0.85311958     0.08400
N282        N  0.61864149  0.53018500  0.81774359    -0.35400
N283        N  0.62624022  0.53540402  0.83561574    -0.27600
C284        C  0.63954004  0.55061583  0.83347398    -0.02900
C285        C  0.64111085  0.55562294  0.81323125     0.05800
C286        C  0.62734320  0.54247214  0.80358857     0.03800
H287        H  0.64757603  0.55747664  0.84604990     0.09000
H288        H  0.62435279  0.54158693  0.78746617     0.07800
N289        N  0.61670759  0.50413650  0.10604494    -0.26600
N290        N  0.60701499  0.48668031  0.10623061    -0.34500
C291        C  0.60614788  0.47917654  0.08728098     0.01700
C292        C  0.61580950  0.49270846  0.07432799     0.07800
C293        C  0.62243451  0.50834315  0.08691399    -0.05300
H294        H  0.59884474  0.46500280  0.08340701     0.08400
H295        H  0.63026523  0.52206565  0.08246343     0.09600
Cu296      Cu  0.59397673  0.47606763  0.13252552     0.44200
Cu297      Cu  0.62008262  0.52047341  0.13263576     0.42000
Cu298      Cu  0.59295186  0.50529118  0.18021350     0.43900
N299        N  0.57537555  0.46948823  0.15673834    -0.34000
N300        N  0.57346275  0.47968668  0.17398570    -0.28200
C301        C  0.55755131  0.47134122  0.18436205    -0.04300
C302        C  0.54936435  0.45539163  0.17279981     0.07900
C303        C  0.56125905  0.45493840  0.15560860     0.01700
H304        H  0.55175250  0.47701863  0.19865947     0.09300
H305        H  0.55917997  0.44521221  0.14250939     0.08400
N306        N  0.61579013  0.52874803  0.17827048    -0.35400
N307        N  0.62467317  0.53349088  0.16085159    -0.27600
C308        C  0.63881609  0.54780470  0.16392425    -0.02900
C309        C  0.63953716  0.55279539  0.18429109     0.05800
C310        C  0.62447246  0.54043131  0.19299445     0.03800
H311        H  0.64812505  0.55399404  0.15190716     0.09000
H312        H  0.62060861  0.53952226  0.20892047     0.07800
N313        N  0.89418788  0.53281661  0.41636850    -0.26600
N314        N  0.89376099  0.52511694  0.43477467    -0.34500
C315        C  0.91282666  0.52440209  0.44220975     0.01700
C316        C  0.92599233  0.53217626  0.42765048     0.07800
C317        C  0.91348249  0.53736523  0.41146036    -0.05300
H318        H  0.91660595  0.51893796  0.45720238     0.08400
H319        H  0.91798774  0.54393677  0.39712156     0.09600
Cu320      Cu  0.86655249  0.51566941  0.44721169     0.44200
Cu321      Cu  0.86768332  0.53728199  0.40023823     0.42000
Cu322      Cu  0.81795053  0.51851831  0.41909078     0.43900
N323        N  0.84050859  0.49986571  0.45463115    -0.34000
N324        N  0.82304189  0.49922339  0.44460245    -0.28200
C325        C  0.81161538  0.48401493  0.45273090    -0.04300
C326        C  0.82271834  0.47488587  0.46839303     0.07900
C327        C  0.84069656  0.48560070  0.46900704     0.01700
H328        H  0.79702093  0.47915158  0.44689451     0.09300
H329        H  0.85380730  0.48229661  0.47840370     0.08400
N330        N  0.82161552  0.53985004  0.39498942    -0.35400
N331        N  0.83978258  0.54582677  0.38867010    -0.27600
C332        C  0.83770237  0.55982071  0.37406245    -0.02900
C333        C  0.81724922  0.56332966  0.37069517     0.05800
C334        C  0.80740826  0.55016526  0.38412701     0.03800
H335        H  0.85041361  0.56692249  0.36646270     0.09000
H336        H  0.79114458  0.54863848  0.38619709     0.07800
N337        N  0.11055351  0.53859834  0.41305974    -0.26600
N338        N  0.11120863  0.53168924  0.43177489    -0.34500
C339        C  0.09231744  0.53211547  0.43966715     0.01700
C340        C  0.07912482  0.53960804  0.42500025     0.07800
C341        C  0.09135538  0.54376170  0.40838328    -0.05300
H342        H  0.08829260  0.52614955  0.45441675     0.08400
H343        H  0.08669149  0.54958645  0.39376836     0.09600
Cu344      Cu  0.13775738  0.51895451  0.44273872     0.44200
Cu345      Cu  0.13608716  0.53878912  0.39516699     0.42000
Cu346      Cu  0.18452402  0.51571409  0.41122996     0.43900
N347        N  0.16141726  0.49883843  0.44769178    -0.34000
N348        N  0.17824758  0.49643271  0.43683045    -0.28200
C349        C  0.18817682  0.47976731  0.44418896    -0.04300
C350        C  0.17671369  0.47146755  0.46008288     0.07900
C351        C  0.16006714  0.48413246  0.46161785     0.01700
H352        H  0.20202777  0.47353457  0.43780869     0.09300
H353        H  0.14721923  0.48229016  0.47173352     0.08400
N354        N  0.18156358  0.53714510  0.38676166    -0.35400
N355        N  0.16348306  0.54420688  0.38133675    -0.27600
C356        C  0.16545437  0.55793161  0.36652471    -0.02900
C357        C  0.18579088  0.56029130  0.36195118     0.05800
C358        C  0.19569426  0.54663660  0.37503003     0.03800
H359        H  0.15274413  0.56605946  0.35994836     0.09000
H360        H  0.21195188  0.54441866  0.37646288     0.07800
N361        N  0.59201298  0.81172178  0.39811342    -0.26600
N362        N  0.57228258  0.81239601  0.40164690    -0.34500
C363        C  0.56627396  0.83190798  0.40290607     0.01700
C364        C  0.58319960  0.84414854  0.40015934     0.07800
C365        C  0.59927843  0.83078228  0.39711754    -0.05300
H366        H  0.55087094  0.83680510  0.40613445     0.08400
H367        H  0.61498307  0.83459532  0.39400604     0.09600
Cu368      Cu  0.55625603  0.78595359  0.40678123     0.44200
Cu369      Cu  0.60649516  0.78414771  0.39380589     0.42000
Cu370      Cu  0.58077826  0.73560824  0.40524472     0.43900
N371        N  0.54612907  0.76081616  0.42247454    -0.34000
N372        N  0.55486354  0.74269677  0.42361106    -0.28200
C373        C  0.54559367  0.73224592  0.43886741    -0.04300
C374        C  0.53060747  0.74466968  0.44756458     0.07900
C375        C  0.53154158  0.76240135  0.43653168     0.01700
H376        H  0.55029403  0.71740042  0.44412288     0.09300
H377        H  0.52314974  0.77625959  0.43952479     0.08400
N378        N  0.60692521  0.73835639  0.38608289    -0.35400
N379        N  0.61584154  0.75610875  0.38303009    -0.27600
C380        C  0.63139503  0.75387276  0.37004958    -0.02900
C381        C  0.63301876  0.73369400  0.36438390     0.05800
C382        C  0.61700495  0.72425536  0.37478129     0.03800
H383        H  0.64025847  0.76648560  0.36446044     0.09000
H384        H  0.61294505  0.70835505  0.37405361     0.07800
N385        N  0.59820160  0.02945452  0.40046689    -0.26600
N386        N  0.57839574  0.02981904  0.40355710    -0.34500
C387        C  0.57130180  0.01068354  0.40365439     0.01700
C388        C  0.58750018  0.99750440  0.40025416     0.07800
C389        C  0.60436382  0.01007239  0.39831309    -0.05300
H390        H  0.55554822  0.00671012  0.40625992     0.08400
H391        H  0.62004231  0.00557752  0.39605932     0.09600
Cu392      Cu  0.56339676  0.05675910  0.40958000     0.44200
Cu393      Cu  0.61467546  0.05612294  0.39916026     0.42000
Cu394      Cu  0.59016756  0.10530012  0.41175419     0.43900
N395        N  0.55301345  0.08183616  0.42533987    -0.34000
N396        N  0.56261813  0.09930754  0.42793976    -0.28200
C397        C  0.55272363  0.10979483  0.44283749    -0.04300
C398        C  0.53633125  0.09810630  0.44970970     0.07900
C399        C  0.53718650  0.08072430  0.43804982     0.01700
H400        H  0.55789331  0.12404311  0.44919011     0.09300
H401        H  0.52789281  0.06729255  0.43986375     0.08400
N402        N  0.61674623  0.10202266  0.39324097    -0.35400
N403        N  0.62543200  0.08412706  0.39001734    -0.27600
C404        C  0.64078316  0.08610866  0.37676174    -0.02900
C405        C  0.64217793  0.10616538  0.37074429     0.05800
C406        C  0.62670319  0.11592876  0.38173484     0.03800
H407        H  0.64970769  0.07343963  0.37121538     0.09000
H408        H  0.62227015  0.13171451  0.38057950     0.07800
N409        N  0.89087590  0.30820934  0.59058383    -0.26600
N410        N  0.89060834  0.31691916  0.57263806    -0.34500
C411        C  0.90953259  0.31692891  0.56491167     0.01700
C412        C  0.92241622  0.30749366  0.57869165     0.07800
C413        C  0.90996663  0.30216391  0.59486086    -0.05300
H414        H  0.91359442  0.32350840  0.55044058     0.08400
H415        H  0.91446099  0.29505907  0.60895475     0.09600
Cu416      Cu  0.86400545  0.32902047  0.56132766     0.44200
Cu417      Cu  0.86435645  0.30593365  0.60706702     0.42000
Cu418      Cu  0.81456014  0.32570629  0.58685195     0.43900
N419        N  0.83865948  0.34551613  0.55311541    -0.34000
N420        N  0.82052606  0.34569777  0.56188970    -0.28200
C421        C  0.80935269  0.36077899  0.55302576    -0.04300
C422        C  0.82135750  0.37028380  0.53823466     0.07900
C423        C  0.83959513  0.35995299  0.53894874     0.01700
H424        H  0.79420329  0.36523809  0.55772581     0.09300
H425        H  0.85322633  0.36342525  0.53040754     0.08400
N426        N  0.81801079  0.30492546  0.61169771    -0.35400
N427        N  0.83608322  0.29950608  0.61888850    -0.27600
C428        C  0.83379970  0.28663534  0.63443412    -0.02900
C429        C  0.81337857  0.28325099  0.63756468     0.05800
C430        C  0.80367534  0.29496814  0.62271567     0.03800
H431        H  0.84634224  0.27940474  0.64226946     0.09000
H432        H  0.78744583  0.29607518  0.62012283     0.07800
N433        N  0.10748636  0.30875348  0.59040484    -0.26600
N434        N  0.10760487  0.31691038  0.57219712    -0.34500
C435        C  0.08862390  0.31676583  0.56460219     0.01700
C436        C  0.07580871  0.30782345  0.57875963     0.07800
C437        C  0.08842520  0.30296377  0.59498985    -0.05300
H438        H  0.08449053  0.32343982  0.55020302     0.08400
H439        H  0.08412551  0.29586107  0.60913824     0.09600
Cu440      Cu  0.13394313  0.32889273  0.56030404     0.44200
Cu441      Cu  0.13405423  0.30674927  0.60694793     0.42000
Cu442      Cu  0.18286904  0.32823876  0.58687772     0.43900
N443        N  0.15874224  0.34584387  0.55163920    -0.34000
N444        N  0.17663240  0.34707698  0.56081900    -0.28200
C445        C  0.18747118  0.36195856  0.55128366    -0.04300
C446        C  0.17553089  0.37021365  0.53562718     0.07900
C447        C  0.15764727  0.35938617  0.53657971     0.01700
H448        H  0.20241627  0.36704020  0.55592914     0.09300
H449        H  0.14416790  0.36183092  0.52744453     0.08400
N450        N  0.18036963  0.30731175  0.61195998    -0.35400
N451        N  0.16251008  0.30105095  0.61891832    -0.27600
C452        C  0.16524523  0.28815509  0.63440030    -0.02900
C453        C  0.18579116  0.28553851  0.63778937     0.05800
C454        C  0.19505173  0.29792729  0.62315635     0.03800
H455        H  0.15293828  0.28049187  0.64213996     0.09000
H456        H  0.21122847  0.29993078  0.62085561     0.07800
N457        N  0.42318079  0.81419532  0.62922544    -0.26600
N458        N  0.43884374  0.81463043  0.61678661    -0.34500
C459        C  0.44643752  0.83356915  0.61635722     0.01700
C460        C  0.43488611  0.84575183  0.62924737     0.07800
C461        C  0.42024378  0.83280288  0.63715493    -0.05300
H462        H  0.45891594  0.83823868  0.60673910     0.08400
H463        H  0.40762897  0.83675119  0.64694811     0.09600
Cu464      Cu  0.44608924  0.78946098  0.59937870     0.44200
Cu465      Cu  0.40628977  0.78810304  0.63241181     0.42000
Cu466      Cu  0.41477758  0.74262124  0.59977410     0.43900
N467        N  0.44906778  0.76564770  0.57903960    -0.34000
N468        N  0.43828900  0.74867298  0.57815870    -0.28200
C469        C  0.44466436  0.73798035  0.56159194    -0.04300
C470        C  0.45990190  0.74905712  0.55177073     0.07900
C471        C  0.46206171  0.76632129  0.56342680     0.01700
H472        H  0.43823152  0.72368713  0.55666222     0.09300
H473        H  0.47219272  0.77892357  0.56048745     0.08400
N474        N  0.39381652  0.74411440  0.62460523    -0.35400
N475        N  0.39154575  0.76073741  0.63574901    -0.27600
C476        C  0.37795748  0.75743906  0.65052644    -0.02900
C477        C  0.37100365  0.73772564  0.64919206     0.05800
C478        C  0.38124506  0.72970502  0.63233012     0.03800
H479        H  0.37324996  0.76894330  0.66129038     0.09000
H480        H  0.37984283  0.71445899  0.62634562     0.07800
N481        N  0.42455625  0.03080874  0.63035725    -0.26600
N482        N  0.43873178  0.02923823  0.61632815    -0.34500
C483        C  0.44529754  0.00991667  0.61545784     0.01700
C484        C  0.43456727  0.99870470  0.62968035     0.07800
C485        C  0.42142114  0.01248998  0.63878685    -0.05300
H486        H  0.45625771  0.00428557  0.60454655     0.08400
H487        H  0.41016562  0.00938757  0.65035673     0.09600
Cu488      Cu  0.44572137  0.05369867  0.59813497     0.44200
Cu489      Cu  0.41018200  0.05818342  0.63506346     0.42000
Cu490      Cu  0.41764553  0.10232459  0.59994257     0.43900
N491        N  0.45034343  0.07759259  0.57847639    -0.34000
N492        N  0.44100131  0.09544922  0.57827076    -0.28200
C493        C  0.44860734  0.10625684  0.56236087    -0.04300
C494        C  0.46309996  0.09430945  0.55226655     0.07900
C495        C  0.46353928  0.07642867  0.56306900     0.01700
H496        H  0.44356375  0.12130654  0.55808444     0.09300
H497        H  0.47274726  0.06316354  0.55978847     0.08400
N498        N  0.39640567  0.10130409  0.62462647    -0.35400
N499        N  0.39524018  0.08558971  0.63713734    -0.27600
C500        C  0.38123937  0.08917514  0.65148038    -0.02900
C501        C  0.37261609  0.10790106  0.64814276     0.05800
C502        C  0.38242600  0.11525275  0.63082929     0.03800
H503        H  0.37712853  0.07847029  0.66322436     0.09000
H504        H  0.37968607  0.12966706  0.62344830     0.07800
N505        N  0.57683991  0.29549816  0.89326768    -0.26600
N506        N  0.56232384  0.30927408  0.89401813    -0.34500
C507        C  0.55571700  0.31114143  0.91321653     0.01700
C508        C  0.56682390  0.29790354  0.92527159     0.07800
C509        C  0.58005527  0.28811372  0.91200739    -0.05300
H510        H  0.54450212  0.32214167  0.91818279     0.08400
H511        H  0.59151285  0.27688269  0.91566455     0.09600
Cu512      Cu  0.55511847  0.32597538  0.86868890     0.44200
Cu513      Cu  0.59214391  0.29038375  0.86646330     0.42000
Cu514      Cu  0.58423261  0.32348902  0.82081271     0.43900
N515        N  0.55003641  0.34440619  0.84404159    -0.34000
N516        N  0.55986372  0.34459527  0.82648703    -0.28200
C517        C  0.55192084  0.36003928  0.81517669    -0.04300
C518        C  0.53664569  0.36976430  0.82647032     0.07900
C519        C  0.53614707  0.35925791  0.84449782     0.01700
H520        H  0.55729788  0.36433326  0.80027619     0.09300
H521        H  0.52656973  0.36250964  0.85748157     0.08400
N522        N  0.60637755  0.29948351  0.82314884    -0.35400
N523        N  0.60811895  0.28810889  0.83963806    -0.27600
C524        C  0.62277026  0.27418177  0.83701277    -0.02900
C525        C  0.63117404  0.27633349  0.81795566     0.05800
C526        C  0.62041765  0.29271391  0.80951785     0.03800
H527        H  0.62716536  0.26335745  0.84854564     0.09000
H528        H  0.62241507  0.29899101  0.79449527     0.07800
N529        N  0.57753558  0.29729903  0.10958336    -0.26600
N530        N  0.55952029  0.30605545  0.11052949    -0.34500
C531        C  0.55169236  0.30750362  0.09174688     0.01700
C532        C  0.56553199  0.29904213  0.07828128     0.07800
C533        C  0.58169893  0.29259096  0.09018097    -0.05300
H534        H  0.53726901  0.31462262  0.08820028     0.08400
H535        H  0.59584443  0.28588921  0.08502466     0.09600
Cu536      Cu  0.54901843  0.31807785  0.13730719     0.44200
Cu537      Cu  0.59552190  0.29483556  0.13507564     0.42000
Cu538      Cu  0.58206059  0.32316335  0.18202433     0.43900
N539        N  0.54419601  0.33847571  0.16037118    -0.34000
N540        N  0.55591258  0.34182487  0.17638232    -0.28200
C541        C  0.54890992  0.35894847  0.18572275    -0.04300
C542        C  0.53230188  0.36645620  0.17470702     0.07900
C543        C  0.52997866  0.35295519  0.15895121     0.01700
H544        H  0.55610295  0.36609661  0.19865444     0.09300
H545        H  0.51936472  0.35423637  0.14644693     0.08400
N546        N  0.60659361  0.30178024  0.17950877    -0.35400
N547        N  0.61109907  0.29261610  0.16214478    -0.27600
C548        C  0.62724716  0.28038874  0.16465432    -0.02900
C549        C  0.63360765  0.28144520  0.18455189     0.05800
C550        C  0.62000046  0.29504323  0.19370750     0.03800
H551        H  0.63354876  0.27085820  0.15280985     0.09000
H552        H  0.61997997  0.29974660  0.20944821     0.07800
N553        N  0.41870115  0.54184302  0.88816229    -0.26600
N554        N  0.43593554  0.53165001  0.88779645    -0.34500
C555        C  0.44329788  0.53016398  0.90676265     0.01700
C556        C  0.42988306  0.53999671  0.91981102     0.07800
C557        C  0.41450657  0.54735276  0.90735627    -0.05300
H558        H  0.45713175  0.52214509  0.91066224     0.08400
H559        H  0.40080643  0.55525658  0.91198093     0.09600
Cu560      Cu  0.44585696  0.51860596  0.86116313     0.44200
Cu561      Cu  0.40211904  0.54524753  0.86191558     0.42000
Cu562      Cu  0.41472567  0.51599868  0.81460478     0.43900
N563        N  0.45183581  0.49999416  0.83676632    -0.34000
N564        N  0.44087291  0.49744766  0.82008970    -0.28200
C565        C  0.44878630  0.48125991  0.80981944    -0.04300
C566        C  0.46527490  0.47355134  0.82087786     0.07900
C567        C  0.46653590  0.48599466  0.83761621     0.01700
H568        H  0.44228570  0.47481719  0.79617124     0.09300
H569        H  0.47670719  0.48417140  0.85041459     0.08400
N570        N  0.39138673  0.53853692  0.81720438    -0.35400
N571        N  0.38787950  0.54861333  0.83430266    -0.27600
C572        C  0.37337922  0.56261203  0.83132175    -0.02900
C573        C  0.36703526  0.56170355  0.81145051     0.05800
C574        C  0.37859718  0.54606207  0.80285120     0.03800
H575        H  0.36785826  0.57284671  0.84296756     0.09000
H576        H  0.37817545  0.54102512  0.78721914     0.07800
N577        N  0.41428168  0.53782698  0.10419723    -0.26600
N578        N  0.43251056  0.52949062  0.10437598    -0.34500
C579        C  0.44002043  0.52924000  0.08541099     0.01700
C580        C  0.42573988  0.53802413  0.07259393     0.07800
C581        C  0.40955240  0.54324174  0.08511382    -0.05300
H582        H  0.45435269  0.52228359  0.08122496     0.08400
H583        H  0.39531121  0.55023976  0.08069905     0.09600
Cu584      Cu  0.44398232  0.51694361  0.13059079     0.44200
Cu585      Cu  0.39757467  0.54011134  0.13054941     0.42000
Cu586      Cu  0.41494637  0.51641998  0.17863139     0.43900
N587        N  0.44998792  0.49802917  0.15471081    -0.34000
N588        N  0.43990998  0.49670113  0.17207290    -0.28200
C589        C  0.44744552  0.48047011  0.18241952    -0.04300
C590        C  0.46265213  0.47132790  0.17068027     0.07900
C591        C  0.46367971  0.48302376  0.15343160     0.01700
H592        H  0.44160401  0.47510111  0.19678729     0.09300
H593        H  0.47318028  0.48028362  0.14027893     0.08400
N594        N  0.39017923  0.53729550  0.17618976    -0.35400
N595        N  0.38413106  0.54458486  0.15845075    -0.27600
C596        C  0.36817630  0.55700295  0.16110340    -0.02900
C597        C  0.36355224  0.55800238  0.18146918     0.05800
C598        C  0.37798804  0.54544242  0.19074941     0.03800
H599        H  0.36091257  0.56536131  0.14896405     0.09000
H600        H  0.37943163  0.54243447  0.20682178     0.07800
N601        N  0.37784206  0.81522958  0.41418818    -0.26600
N602        N  0.38623959  0.81427346  0.43228392    -0.34500
C603        C  0.38697742  0.83299377  0.44038740     0.01700
C604        C  0.37854688  0.84648764  0.42656382     0.07800
C605        C  0.37276465  0.83456802  0.41017277    -0.05300
H606        H  0.39372725  0.83644300  0.45494945     0.08400
H607        H  0.36642554  0.83968424  0.39591278     0.09600
Cu608      Cu  0.39873654  0.78758000  0.44249741     0.44200
Cu609      Cu  0.37626286  0.78983587  0.39605801     0.42000
Cu610      Cu  0.40158283  0.74141185  0.41128687     0.43900
N611        N  0.41741181  0.76333243  0.44865833    -0.34000
N612        N  0.41980492  0.74652191  0.43784250    -0.28200
C613        C  0.43560026  0.73593954  0.44615466    -0.04300
C614        C  0.44323450  0.74696494  0.46270085     0.07900
C615        C  0.43119302  0.76404671  0.46355242     0.01700
H616        H  0.44180147  0.72199826  0.43998164     0.09300
H617        H  0.43298393  0.77681673  0.47376579     0.08400
N618        N  0.38098881  0.74479788  0.38619894    -0.35400
N619        N  0.37321507  0.76263520  0.38096056    -0.27600
C620        C  0.36088691  0.76044985  0.36490323    -0.02900
C621        C  0.36034365  0.74027496  0.35938736     0.05800
C622        C  0.37317975  0.73064141  0.37335817     0.03800
H623        H  0.35206099  0.77269661  0.35836371     0.09000
H624        H  0.37640873  0.71454364  0.37419117     0.07800
N625        N  0.38698074  0.03073364  0.40958393    -0.26600
N626        N  0.39443820  0.03064977  0.42809833    -0.34500
C627        C  0.39472353  0.01151868  0.43509796     0.01700
C628        C  0.38689336  0.99886382  0.42015146     0.07800
C629        C  0.38207028  0.01169017  0.40415164    -0.05300
H630        H  0.40046467  0.00717828  0.44985559     0.08400
H631        H  0.37508562  0.00770988  0.38983639     0.09600
Cu632      Cu  0.40437222  0.05721235  0.44120580     0.44200
Cu633      Cu  0.38374048  0.05767252  0.39434796     0.42000
Cu634      Cu  0.40365847  0.10652053  0.41467728     0.43900
N635        N  0.42140543  0.08200191  0.44960668    -0.34000
N636        N  0.42279684  0.09978488  0.44033973    -0.28200
C637        C  0.43844196  0.11015463  0.44918908    -0.04300
C638        C  0.44706021  0.09799489  0.46442086     0.07900
C639        C  0.43561678  0.08052443  0.46403850     0.01700
H640        H  0.44391721  0.12478831  0.44415701     0.09300
H641        H  0.43825276  0.06693552  0.47289253     0.08400
N642        N  0.38236312  0.10381390  0.38996551    -0.35400
N643        N  0.37607731  0.08583446  0.38344872    -0.27600
C644        C  0.36213289  0.08812359  0.36883059    -0.02900
C645        C  0.35902309  0.10849631  0.36538229     0.05800
C646        C  0.37228158  0.11817436  0.37899102     0.03800
H647        H  0.35455749  0.07559800  0.36134987     0.09000
H648        H  0.37391419  0.13437761  0.38118450     0.07800
N649        N  0.89348674  0.32998638  0.39331857    -0.26600
N650        N  0.89427513  0.34858939  0.40061488    -0.34500
C651        C  0.91370970  0.35492932  0.40052909     0.01700
C652        C  0.92576123  0.33943773  0.39266004     0.07800
C653        C  0.91231459  0.32387654  0.38814780    -0.05300
H654        H  0.91857036  0.36974815  0.40567910     0.08400
H655        H  0.91592932  0.30911702  0.38184042     0.09600
Cu656      Cu  0.86817431  0.36280696  0.41090976     0.44200
Cu657      Cu  0.86614646  0.31521214  0.39071669     0.42000
Cu658      Cu  0.81745295  0.33888639  0.40637808     0.43900
N659        N  0.84253146  0.37201662  0.42662950    -0.34000
N660        N  0.82415107  0.36377115  0.42615996    -0.28200
C661        C  0.81274637  0.37283877  0.44089395    -0.04300
C662        C  0.82477840  0.38717836  0.45096172     0.07900
C663        C  0.84335625  0.38608193  0.44128611     0.01700
H664        H  0.79732862  0.36856455  0.44473231     0.09300
H665        H  0.85704715  0.39425788  0.44534905     0.08400
N666        N  0.82001318  0.31314780  0.38668788    -0.35400
N667        N  0.83789930  0.30481491  0.38250788    -0.27600
C668        C  0.83551596  0.28911481  0.36982630    -0.02900
C669        C  0.81513979  0.28689680  0.36542239     0.05800
C670        C  0.80563552  0.30259859  0.37626220     0.03800
H671        H  0.84807145  0.28056549  0.36345978     0.09000
H672        H  0.78953414  0.30609754  0.37644393     0.07800
N673        N  0.11070217  0.32363810  0.38716372    -0.26600
N674        N  0.11012006  0.34202922  0.39496085    -0.34500
C675        C  0.09078435  0.34867988  0.39518320     0.01700
C676        C  0.07851212  0.33360914  0.38702682     0.07800
C677        C  0.09175225  0.31791084  0.38202934    -0.05300
H678        H  0.08598929  0.36317404  0.40132358     0.08400
H679        H  0.08803122  0.30351719  0.37503602     0.09600
Cu680      Cu  0.13631572  0.35527435  0.40576199     0.44200
Cu681      Cu  0.13819895  0.30895665  0.38445025     0.42000
Cu682      Cu  0.18694911  0.33114843  0.40411039     0.43900
N683        N  0.16108815  0.36491782  0.42223535    -0.34000
N684        N  0.17948696  0.35668819  0.42310420    -0.28200
C685        C  0.19001039  0.36656651  0.43800296    -0.04300
C686        C  0.17731926  0.38140107  0.44668111     0.07900
C687        C  0.15936222  0.37968624  0.43605716     0.01700
H688        H  0.20526136  0.36263787  0.44282429     0.09300
H689        H  0.14541208  0.38801933  0.43886228     0.08400
N690        N  0.18475105  0.30608988  0.38324391    -0.35400
N691        N  0.16691282  0.29869115  0.37743512    -0.27600
C692        C  0.16962103  0.28405683  0.36360142    -0.02900
C693        C  0.19008426  0.28174272  0.35986834     0.05800
C694        C  0.19943414  0.29580126  0.37282968     0.03800
H695        H  0.15728008  0.27607716  0.35621544     0.09000
H696        H  0.21556421  0.29893152  0.37385154     0.07800
N697        N  0.38048080  0.33708255  0.88602520    -0.26600
N698        N  0.38801298  0.35555449  0.88629598    -0.34500
C699        C  0.38755157  0.36271369  0.90538879     0.01700
C700        C  0.37904024  0.34792395  0.91779007     0.07800
C701        C  0.37471166  0.33186274  0.90482482    -0.05300
H702        H  0.39410901  0.37706128  0.90991542     0.08400
H703        H  0.36837578  0.31723661  0.90872868     0.09600
Cu704      Cu  0.40090190  0.36744044  0.86046089     0.44200
Cu705      Cu  0.38030696  0.32059542  0.85970453     0.42000
Cu706      Cu  0.40290116  0.33896710  0.81183932     0.43900
N707        N  0.42066111  0.37357435  0.83701370    -0.34000
N708        N  0.42259150  0.36378394  0.81952149    -0.28200
C709        C  0.43926360  0.37142510  0.80990633    -0.04300
C710        C  0.44804729  0.38636717  0.82224845     0.07900
C711        C  0.43566752  0.38711962  0.83907995     0.01700
H712        H  0.44514929  0.36585243  0.79560301     0.09300
H713        H  0.43790574  0.39635852  0.85249919     0.08400
N714        N  0.38198732  0.31408534  0.81398834    -0.35400
N715        N  0.37532443  0.30781499  0.83186566    -0.27600
C716        C  0.36273516  0.29209076  0.82955321    -0.02900
C717        C  0.36084753  0.28767815  0.80923032     0.05800
C718        C  0.37322823  0.30208127  0.79960242     0.03800
H719        H  0.35492728  0.28478615  0.84201137     0.09000
H720        H  0.37578840  0.30356216  0.78345687     0.07800
N721        N  0.38198851  0.33211116  0.10185408    -0.26600
N722        N  0.39099463  0.34994630  0.10218339    -0.34500
C723        C  0.39143589  0.35754991  0.08328616     0.01700
C724        C  0.38197591  0.34380892  0.07042171     0.07800
C725        C  0.37617755  0.32780873  0.08277880    -0.05300
H726        H  0.39837889  0.37185924  0.07921115     0.08400
H727        H  0.36898412  0.31376233  0.07821503     0.09600
Cu728      Cu  0.40329509  0.36118107  0.12864566     0.44200
Cu729      Cu  0.37937981  0.31523265  0.12793949     0.42000
Cu730      Cu  0.40253543  0.33265160  0.17656831     0.43900
N731        N  0.42054164  0.36851502  0.15369407    -0.34000
N732        N  0.42168149  0.35859789  0.17113079    -0.28200
C733        C  0.43700900  0.36718234  0.18217707    -0.04300
C734        C  0.44568718  0.38298156  0.17085034     0.07900
C735        C  0.43462850  0.38313345  0.15309456     0.01700
H736        H  0.44221350  0.36165472  0.19673449     0.09300
H737        H  0.43737556  0.39260685  0.13997116     0.08400
N738        N  0.38152824  0.30773000  0.17356444    -0.35400
N739        N  0.37438266  0.30186446  0.15568724    -0.27600
C740        C  0.36162482  0.28618935  0.15800889    -0.02900
C741        C  0.36010462  0.28146507  0.17833352     0.05800
C742        C  0.37296534  0.29556148  0.18786824     0.03800
H743        H  0.35341966  0.27918229  0.14561036     0.09000
H744        H  0.37589878  0.29682574  0.20397044     0.07800
N745        N  0.12132999  0.30984274  0.07504982    -0.26600
N746        N  0.11189443  0.30882421  0.05743248    -0.34500
C747        C  0.11064112  0.32754322  0.04937856     0.01700
C748        C  0.12000186  0.34108048  0.06253039     0.07800
C749        C  0.12663380  0.32924108  0.07866691    -0.05300
H750        H  0.10283176  0.33110896  0.03536959     0.08400
H751        H  0.13367503  0.33446854  0.09256030     0.09600
Cu752      Cu  0.09876079  0.28216266  0.04758789     0.44200
Cu753      Cu  0.12385509  0.28451378  0.09352884     0.42000
Cu754      Cu  0.09539951  0.23736529  0.08021286     0.43900
N755        N  0.07893854  0.25842843  0.04275514    -0.34000
N756        N  0.07624880  0.24231954  0.05444504    -0.28200
C757        C  0.05941906  0.23234468  0.04763346    -0.04300
C758        C  0.05139109  0.24298033  0.03108028     0.07900
C759        C  0.06433227  0.25922363  0.02864208     0.01700
H760        H  0.05277951  0.21923406  0.05493964     0.09300
H761        H  0.06249416  0.27165239  0.01806115     0.08400
N762        N  0.11713625  0.23988169  0.10427136    -0.35400
N763        N  0.12620683  0.25722440  0.10905478    -0.27600
C764        C  0.13872735  0.25431241  0.12491550    -0.02900
C765        C  0.13809156  0.23414837  0.13052369     0.05800
C766        C  0.12427735  0.22533865  0.11702209     0.03800
H767        H  0.14828830  0.26598744  0.13144324     0.09000
H768        H  0.11976635  0.20955044  0.11655481     0.07800
N769        N  0.11885209  0.52613130  0.07612775    -0.26600
N770        N  0.10794731  0.52687092  0.05939578    -0.34500
C771        C  0.10574666  0.50796560  0.05193489     0.01700
C772        C  0.11592134  0.49454500  0.06466625     0.07800
C773        C  0.12401916  0.50672821  0.07989847    -0.05300
H774        H  0.09669926  0.50428939  0.03872735     0.08400
H775        H  0.13287826  0.50188066  0.09285927     0.09600
Cu776      Cu  0.09560245  0.55406114  0.04985118     0.44200
Cu777      Cu  0.12468219  0.55237280  0.09234699     0.42000
Cu778      Cu  0.09849135  0.60143076  0.07963747     0.43900
N779        N  0.07843899  0.57970220  0.04423197    -0.34000
N780        N  0.07791912  0.59688298  0.05471669    -0.28200
C781        C  0.06216616  0.60825729  0.04735094    -0.04300
C782        C  0.05256466  0.59737475  0.03174234     0.07900
C783        C  0.06357253  0.57959909  0.03040238     0.01700
H784        H  0.05732085  0.62267791  0.05362206     0.09300
H785        H  0.06022688  0.56672354  0.02073055     0.08400
N786        N  0.12150290  0.59767780  0.10251846    -0.35400
N787        N  0.13046065  0.57998309  0.10618040    -0.27600
C788        C  0.14460270  0.58221663  0.12070128    -0.02900
C789        C  0.14492779  0.60220349  0.12701622     0.05800
C790        C  0.12994335  0.61164423  0.11517135     0.03800
H791        H  0.15390269  0.56991249  0.12643218     0.09000
H792        H  0.12578733  0.62755037  0.11546886     0.07800
N793        N  0.39344134  0.01983186  0.09639639    -0.26600
N794        N  0.39441011  0.01463474  0.07712786    -0.34500
C795        C  0.41398978  0.01257466  0.07168802     0.01700
C796        C  0.42599235  0.01670285  0.08850828     0.07800
C797        C  0.41238030  0.02143376  0.10389349    -0.05300
H798        H  0.41895729  0.00829006  0.05663269     0.08400
H799        H  0.41590276  0.02528867  0.11946894     0.09600
Cu800      Cu  0.36846209  0.00847811  0.06083382     0.44200
Cu801      Cu  0.36580386  0.02405260  0.11023371     0.42000
Cu802      Cu  0.31780146  0.01082357  0.08405351     0.43900
N803        N  0.34350979  0.99309398  0.05002068    -0.34000
N804        N  0.32512899  0.99238271  0.05824203    -0.28200
C805        C  0.31446608  0.97759483  0.04844622    -0.04300
C806        C  0.32701023  0.96878901  0.03365157     0.07900
C807        C  0.34508809  0.97921277  0.03526051     0.01700
H808        H  0.29927941  0.97278602  0.05255387     0.09300
H809        H  0.35905641  0.97600124  0.02713103     0.08400
N810        N  0.31983344  0.03001167  0.11027686    -0.35400
N811        N  0.33747576  0.03357540  0.11931188    -0.27600
C812        C  0.33482832  0.04620942  0.13502043    -0.02900
C813        C  0.31448413  0.05114038  0.13661431     0.05800
C814        C  0.30533450  0.04072568  0.12044585     0.03800
H815        H  0.34723045  0.05207041  0.14407302     0.09000
H816        H  0.28937523  0.04100496  0.11639304     0.07800
N817        N  0.61105183  0.02190476  0.10255364    -0.26600
N818        N  0.61141299  0.01906547  0.08277364    -0.34500
C819        C  0.59229792  0.01714008  0.07589586     0.01700
C820        C  0.57908704  0.01919272  0.09220252     0.07800
C821        C  0.59162230  0.02219399  0.10890831    -0.05300
H822        H  0.58856409  0.01371274  0.06029447     0.08400
H823        H  0.58705097  0.02446034  0.12452010     0.09600
Cu824      Cu  0.63821467  0.01565638  0.06707946     0.44200
Cu825      Cu  0.63761429  0.02517158  0.11878666     0.42000
Cu826      Cu  0.68663059  0.01502655  0.09267711     0.43900
N827        N  0.66327279  0.00057269  0.05609621    -0.34000
N828        N  0.68092167  0.99842559  0.06551855    -0.28200
C829        C  0.69149513  0.98341882  0.05592671    -0.04300
C830        C  0.67961866  0.97597569  0.03994748     0.07900
C831        C  0.66205632  0.98742342  0.04066834     0.01700
H832        H  0.70587043  0.97729928  0.06113589     0.09300
H833        H  0.64843473  0.98507626  0.03172639     0.08400
N834        N  0.68317935  0.03317972  0.11927588    -0.35400
N835        N  0.66551850  0.03528736  0.12878370    -0.27600
C836        C  0.66767303  0.04783900  0.14468543    -0.02900
C837        C  0.68757256  0.05437400  0.14552222     0.05800
C838        C  0.69703269  0.04490068  0.12903953     0.03800
H839        H  0.65522017  0.05286129  0.15422150     0.09000
H840        H  0.71271023  0.04668004  0.12434492     0.07800
N841        N  0.39260211  0.01041719  0.88917935    -0.26600
N842        N  0.39233421  0.99126429  0.89489686    -0.34500
C843        C  0.41138642  0.98380187  0.89451666     0.01700
C844        C  0.42442830  0.99905670  0.88812247     0.07800
C845        C  0.41185796  0.01574213  0.88477281    -0.05300
H846        H  0.41544344  0.96853203  0.89903648     0.08400
H847        H  0.41619843  0.03058299  0.87930762     0.09600
Cu848      Cu  0.36576388  0.97750682  0.90407459     0.44200
Cu849      Cu  0.36598563  0.02722963  0.88776107     0.42000
Cu850      Cu  0.31709359  0.00415578  0.90465317     0.43900
N851        N  0.34085353  0.96798137  0.92041331    -0.34000
N852        N  0.32318734  0.97751313  0.92231934    -0.28200
C853        C  0.31269514  0.96831793  0.93760469    -0.04300
C854        C  0.32461710  0.95248896  0.94544665     0.07900
C855        C  0.34211135  0.95290797  0.93391909     0.01700
H856        H  0.29826396  0.97362123  0.94352361     0.09300
H857        H  0.35567782  0.94384276  0.93627128     0.08400
N858        N  0.31968070  0.03056875  0.88578789    -0.35400
N859        N  0.33745461  0.03908421  0.88153120    -0.27600
C860        C  0.33458440  0.05534094  0.86957467    -0.02900
C861        C  0.31411869  0.05733058  0.86542655     0.05800
C862        C  0.30501959  0.04126650  0.87589469     0.03800
H863        H  0.34677364  0.06435116  0.86322297     0.09000
H864        H  0.28899186  0.03751922  0.87604386     0.07800
N865        N  0.60887531  0.00569589  0.88554458    -0.26600
N866        N  0.60986216  0.98733641  0.89334439    -0.34500
C867        C  0.59117140  0.97903988  0.89322554     0.01700
C868        C  0.57767456  0.99301795  0.88488645     0.07800
C869        C  0.58959567  0.00970569  0.88007758    -0.05300
H870        H  0.58773785  0.96417945  0.89925086     0.08400
H871        H  0.58452428  0.02408364  0.87394470     0.09600
Cu872      Cu  0.63659776  0.97698945  0.90612872     0.44200
Cu873      Cu  0.63420572  0.02395593  0.88442130     0.42000
Cu874      Cu  0.68276610  0.00894271  0.90865824     0.43900
N875        N  0.66081207  0.97190865  0.92542079    -0.34000
N876        N  0.67747598  0.98302229  0.92754378    -0.28200
C877        C  0.68801809  0.97557083  0.94372330    -0.04300
C878        C  0.67716258  0.95927623  0.95196786     0.07900
C879        C  0.66018234  0.95764037  0.93983582     0.01700
H880        H  0.70183792  0.98217481  0.94972130     0.09300
H881        H  0.64757305  0.94729621  0.94193003     0.08400
N882        N  0.67943814  0.03351297  0.88761782    -0.35400
N883        N  0.66145627  0.03865403  0.88008922    -0.27600
C884        C  0.66350584  0.05419142  0.86716335    -0.02900
C885        C  0.68374638  0.05958608  0.86606477     0.05800
C886        C  0.69355077  0.04597214  0.87916323     0.03800
H887        H  0.65107229  0.06041040  0.85836689     0.09000
H888        H  0.70972751  0.04511543  0.88213979     0.07800
N889        N  0.39962880  0.83216723  0.11298508    -0.26600
N890        N  0.39918014  0.84970482  0.10345969    -0.34500
C891        C  0.41783751  0.85798557  0.10380115     0.01700
C892        C  0.43078367  0.84496378  0.11420109     0.07800
C893        C  0.41857864  0.82871958  0.11987712    -0.05300
H894        H  0.42168688  0.87227517  0.09671258     0.08400
H895        H  0.42288813  0.81552983  0.12863557     0.09600
Cu896      Cu  0.37270773  0.86024235  0.09051116     0.44200
Cu897      Cu  0.37355122  0.81509053  0.11577921     0.42000
Cu898      Cu  0.32425601  0.83287443  0.09334821     0.43900
N899        N  0.34712972  0.86779517  0.07414912    -0.34000
N900        N  0.32938828  0.85829612  0.07391809    -0.28200
C901        C  0.31782280  0.86680993  0.05900259    -0.04300
C902        C  0.32915288  0.88213347  0.04961857     0.07900
C903        C  0.34743082  0.88214249  0.05985066     0.01700
H904        H  0.30290379  0.86149906  0.05453905     0.09300
H905        H  0.36066348  0.89126869  0.05637194     0.08400
N906        N  0.32763481  0.80803598  0.11394881    -0.35400
N907        N  0.34557405  0.80193210  0.12086884    -0.27600
C908        C  0.34310863  0.78624717  0.13355467    -0.02900
C909        C  0.32263909  0.78186230  0.13519785     0.05800
C910        C  0.31319012  0.79608445  0.12250353     0.03800
H911        H  0.35549203  0.77908071  0.14168289     0.09000
H912        H  0.29704455  0.79766206  0.11969758     0.07800
N913        N  0.61434419  0.84492291  0.12497319    -0.26600
N914        N  0.61517509  0.86279621  0.11611632    -0.34500
C915        C  0.59630515  0.87060667  0.11478577     0.01700
C916        C  0.58286786  0.85688249  0.12340119     0.07800
C917        C  0.59492833  0.84078883  0.12979313    -0.05300
H918        H  0.59272285  0.88499106  0.10772713     0.08400
H919        H  0.58989325  0.82674878  0.13664606     0.09600
Cu920      Cu  0.64209300  0.87324986  0.10427304     0.44200
Cu921      Cu  0.64022606  0.82751508  0.12808214     0.42000
Cu922      Cu  0.68835930  0.84178436  0.10192210     0.43900
N923        N  0.66588317  0.87835027  0.08474828    -0.34000
N924        N  0.68253077  0.86721181  0.08233963    -0.28200
C925        C  0.69229253  0.87415644  0.06545747    -0.04300
C926        C  0.68087857  0.89010340  0.05710296     0.07900
C927        C  0.66448842  0.89212438  0.06994100     0.01700
H928        H  0.70585481  0.86735171  0.05904179     0.09300
H929        H  0.65160186  0.90221361  0.06797433     0.08400
N930        N  0.68546903  0.81758753  0.12359519    -0.35400
N931        N  0.66772912  0.81293295  0.13196382    -0.27600
C932        C  0.66990386  0.79691601  0.14428646    -0.02900
C933        C  0.68993135  0.79069235  0.14409831     0.05800
C934        C  0.69956215  0.80432012  0.13094744     0.03800
H935        H  0.65761413  0.79034798  0.15300491     0.09000
H936        H  0.71547756  0.80424708  0.12671996     0.07800
N937        N  0.90957006  0.31547662  0.10858506    -0.26600
N938        N  0.92817519  0.31493248  0.10117169    -0.34500
C939        C  0.93551444  0.33395746  0.10006863     0.01700
C940        C  0.92071814  0.34719674  0.10734193     0.07800
C941        C  0.90449558  0.33483625  0.11269262    -0.05300
H942        H  0.95053167  0.33774145  0.09453400     0.08400
H943        H  0.88996502  0.33955496  0.11885414     0.09600
Cu944      Cu  0.94089372  0.28775731  0.09209344     0.44200
Cu945      Cu  0.89310751  0.28908732  0.11243559     0.42000
Cu946      Cu  0.91215738  0.23964044  0.09320365     0.43900
N947        N  0.94849451  0.26224790  0.07559991    -0.34000
N948        N  0.93827244  0.24497608  0.07419821    -0.28200
C949        C  0.94670924  0.23401040  0.05872082    -0.04300
C950        C  0.96275084  0.24520739  0.05026140     0.07900
C951        C  0.96321570  0.26277406  0.06160433     0.01700
H952        H  0.94087535  0.21966297  0.05322941     0.09300
H953        H  0.97279062  0.27586205  0.05894426     0.08400
N954        N  0.88762857  0.24309167  0.11465129    -0.35400
N955        N  0.88111958  0.26126126  0.12045238    -0.27600
C956        C  0.86655806  0.25934060  0.13457293    -0.02900
C957        C  0.86345527  0.23899709  0.13860753     0.05800
C958        C  0.87694766  0.22903229  0.12537732     0.03800
H959        H  0.85903725  0.27214462  0.14164931     0.09000
H960        H  0.87935119  0.21280528  0.12427679     0.07800
N961        N  0.91221803  0.53284482  0.11526747    -0.26600
N962        N  0.93008633  0.53221388  0.10625419    -0.34500
C963        C  0.93646797  0.51282243  0.10522905     0.01700
C964        C  0.92177423  0.50054754  0.11407358     0.07800
C965        C  0.90664189  0.51390967  0.12041552    -0.05300
H966        H  0.95031583  0.50796586  0.09774903     0.08400
H967        H  0.89251859  0.51027509  0.12799001     0.09600
Cu968      Cu  0.94259302  0.55822955  0.09411544     0.44200
Cu969      Cu  0.89689757  0.56001608  0.11839864     0.42000
Cu970      Cu  0.91534500  0.60749030  0.09399510     0.43900
N971        N  0.95049083  0.58292041  0.07656347    -0.34000
N972        N  0.94089662  0.60058754  0.07512351    -0.28200
C973        C  0.94941150  0.61105865  0.05948162    -0.04300
C974        C  0.96482547  0.59914526  0.05087180     0.07900
C975        C  0.96492135  0.58165278  0.06230051     0.01700
H976        H  0.94398843  0.62557283  0.05399473     0.09300
H977        H  0.97406377  0.56821259  0.05960723     0.08400
N978        N  0.89123786  0.60605180  0.11571787    -0.35400
N979        N  0.88513574  0.58860196  0.12362987    -0.27600
C980        C  0.87092173  0.59205455  0.13778308    -0.02900
C981        C  0.86763681  0.61266495  0.13943947     0.05800
C982        C  0.88059856  0.62120251  0.12496076     0.03800
H983        H  0.86388942  0.58023460  0.14674077     0.09000
H984        H  0.88282333  0.63722371  0.12211754     0.07800
N985        N  0.92915015  0.05327227  0.39187422    -0.26600
N986        N  0.94424984  0.04010512  0.39220503    -0.34500
C987        C  0.95136444  0.03855178  0.41126406     0.01700
C988        C  0.94009032  0.05148052  0.42359747     0.07800
C989        C  0.92607715  0.06054293  0.41069938    -0.05300
H990        H  0.96296993  0.02785799  0.41593386     0.08400
H991        H  0.91410816  0.07111180  0.41476168     0.09600
Cu992      Cu  0.95129885  0.02326245  0.36672249     0.44200
Cu993      Cu  0.91275507  0.05786064  0.36570409     0.42000
Cu994      Cu  0.91777493  0.02231522  0.32176239     0.43900
N995        N  0.95412504  0.00286328  0.34307651    -0.34000
N996        N  0.94236971  0.00118447  0.32681752    -0.28200
C997        C  0.94852195  0.98426701  0.31645937    -0.04300
C998        C  0.96464782  0.97511081  0.32702819     0.07900
C999        C  0.96753273  0.98754245  0.34361104     0.01700
H1000       H  0.94122141  0.97850600  0.30291276     0.09300
H1001       H  0.97823083  0.98513715  0.35587547     0.08400
N1002       N  0.89635839  0.04711686  0.32369829    -0.35400
N1003       N  0.89581747  0.05958782  0.33950714    -0.27600
C1004       C  0.88160653  0.07393782  0.33669111    -0.02900
C1005       C  0.87217812  0.07082807  0.31826240     0.05800
C1006       C  0.88188022  0.05351512  0.31037572     0.03800
H1007       H  0.87812225  0.08566556  0.34768895     0.09000
H1008       H  0.87884834  0.04634043  0.29591196     0.07800
N1009       N  0.92381114  0.04667245  0.60664492    -0.26600
N1010       N  0.94187233  0.03800602  0.60791168    -0.34500
C1011       C  0.95104851  0.03891252  0.58967942     0.01700
C1012       C  0.93813988  0.04893953  0.57635065     0.07800
C1013       C  0.92100101  0.05363240  0.58770195    -0.05300
H1014       H  0.96569779  0.03218894  0.58623534     0.08400
H1015       H  0.90703367  0.06051431  0.58234302     0.09600
Cu1016     Cu  0.95105860  0.02352894  0.63417388     0.44200
Cu1017     Cu  0.90367298  0.04649929  0.63063062     0.42000
Cu1018     Cu  0.91652339  0.01950910  0.67801601     0.43900
N1019       N  0.95533780  0.00390806  0.65825649    -0.34000
N1020       N  0.94310555  0.00124418  0.67401141    -0.28200
C1021       C  0.94974293  0.98461549  0.68435175    -0.04300
C1022       C  0.96673479  0.97661900  0.67434067     0.07900
C1023       C  0.96965526  0.98941199  0.65807135     0.01700
H1024       H  0.94194485  0.97798609  0.69718400     0.09300
H1025       H  0.98066621  0.98747534  0.64599219     0.08400
N1026       N  0.89111033  0.03944453  0.67441886    -0.35400
N1027       N  0.88648709  0.04791145  0.65678573    -0.27600
C1028       C  0.86996344  0.05975945  0.65887783    -0.02900
C1029       C  0.86360853  0.05922024  0.67882993     0.05800
C1030       C  0.87749348  0.04624141  0.68835565     0.03800
H1031       H  0.86380105  0.06914249  0.64688435     0.09000
H1032       H  0.87784457  0.04234452  0.70429404     0.07800
N1033       N  0.08390681  0.79925247  0.39034091    -0.26600
N1034       N  0.06681429  0.80966906  0.39114024    -0.34500
C1035       C  0.06005117  0.81003258  0.41038679     0.01700
C1036       C  0.07366129  0.79917680  0.42235099     0.07800
C1037       C  0.08862162  0.79254468  0.40899918    -0.05300
H1038       H  0.04701308  0.81874780  0.41541314     0.08400
H1039       H  0.10232716  0.78416663  0.41263417     0.09600
Cu1040     Cu  0.05639884  0.82487446  0.36582982     0.44200
Cu1041     Cu  0.09999123  0.79742175  0.36369159     0.42000
Cu1042     Cu  0.08440996  0.82581805  0.31717849     0.43900
N1043       N  0.04935255  0.84372902  0.34184418    -0.34000
N1044       N  0.05887981  0.84527061  0.32418637    -0.28200
C1045       C  0.05010925  0.86097910  0.31385622    -0.04300
C1046       C  0.03459533  0.86947156  0.32584393     0.07900
C1047       C  0.03484161  0.85796038  0.34327550     0.01700
H1048       H  0.05522069  0.86643566  0.29924723     0.09300
H1049       H  0.02553679  0.86029085  0.35664245     0.08400
N1050       N  0.10894057  0.80402318  0.31870675    -0.35400
N1051       N  0.11403869  0.79500952  0.33595314    -0.27600
C1052       C  0.12978185  0.78240724  0.33296500    -0.02900
C1053       C  0.13540108  0.78299266  0.31286069     0.05800
C1054       C  0.12167728  0.79676299  0.30407173     0.03800
H1055       H  0.13624345  0.77287900  0.34468575     0.09000
H1056       H  0.12110817  0.80117812  0.28827576     0.07800
N1057       N  0.09127472  0.81000101  0.60631073    -0.26600
N1058       N  0.07257127  0.81725358  0.60627988    -0.34500
C1059       C  0.06508043  0.81643430  0.58732942     0.01700
C1060       C  0.07978530  0.80793315  0.57482534     0.07800
C1061       C  0.09623559  0.80400534  0.58741948    -0.05300
H1062       H  0.05012215  0.82178576  0.58296737     0.08400
H1063       H  0.11089508  0.79782642  0.58312223     0.09600
Cu1064     Cu  0.05964402  0.82880105  0.63236656     0.44200
Cu1065     Cu  0.10795532  0.80920279  0.63277292     0.42000
Cu1066     Cu  0.08617830  0.82820527  0.68136580     0.43900
N1067       N  0.05093511  0.84583981  0.65716548    -0.34000
N1068       N  0.06021598  0.84702887  0.67497110    -0.28200
C1069       C  0.05113204  0.86228545  0.68571356    -0.04300
C1070       C  0.03565354  0.87086537  0.67383134     0.07900
C1071       C  0.03618769  0.85983704  0.65604994     0.01700
H1072       H  0.05614277  0.86752309  0.70045696     0.09300
H1073       H  0.02718599  0.86259781  0.64256805     0.08400
N1074       N  0.11181377  0.80799642  0.67891240    -0.35400
N1075       N  0.11954664  0.80272170  0.66108849    -0.27600
C1076       C  0.13514077  0.78984222  0.66371036    -0.02900
C1077       C  0.13780065  0.78622760  0.68416058     0.05800
C1078       C  0.12261088  0.79804129  0.69345737     0.03800
H1079       H  0.14330483  0.78273757  0.65131843     0.09000
H1080       H  0.11956259  0.79919177  0.70954804     0.07800
N1081       N  0.88674312  0.31780574  0.91030192    -0.26600
N1082       N  0.89471662  0.31754181  0.92863898    -0.34500
C1083       C  0.89511892  0.33660400  0.93603933     0.01700
C1084       C  0.88672798  0.34946389  0.92159692     0.07800
C1085       C  0.88151879  0.33694195  0.90550334    -0.05300
H1086       H  0.90078969  0.34068930  0.95090642     0.08400
H1087       H  0.87458482  0.34140624  0.89129651     0.09600
Cu1088     Cu  0.90465705  0.29056841  0.94124726     0.44200
Cu1089     Cu  0.88333625  0.29145487  0.89378706     0.42000
Cu1090     Cu  0.90233020  0.24210073  0.91296530     0.43900
N1091       N  0.92024496  0.26447619  0.94917071    -0.34000
N1092       N  0.92104455  0.24705491  0.93909571    -0.28200
C1093       C  0.93611239  0.23555899  0.94751733    -0.04300
C1094       C  0.94498983  0.24653872  0.96342291     0.07900
C1095       C  0.93426892  0.26454710  0.96387327     0.01700
H1096       H  0.94115356  0.22103079  0.94166092     0.09300
H1097       H  0.93749603  0.27761272  0.97332918     0.08400
N1098       N  0.88191780  0.24560363  0.88786723    -0.35400
N1099       N  0.87614042  0.26370197  0.88124972    -0.27600
C1100       C  0.86313805  0.26160933  0.86571078    -0.02900
C1101       C  0.86009636  0.24120366  0.86191707     0.05800
C1102       C  0.87231462  0.23141421  0.87636937     0.03800
H1103       H  0.85581727  0.27426433  0.85820046     0.09000
H1104       H  0.87410226  0.21521163  0.87838393     0.07800
N1105       N  0.87480294  0.53437201  0.91571433    -0.26600
N1106       N  0.88607058  0.53320792  0.93216638    -0.34500
C1107       C  0.88678518  0.51377917  0.93834627     0.01700
C1108       C  0.87539043  0.50206762  0.92495826     0.07800
C1109       C  0.86790061  0.51579824  0.91082827    -0.05300
H1110       H  0.89587273  0.50843923  0.95095442     0.08400
H1111       H  0.85855500  0.51263232  0.89770208     0.09600
Cu1112     Cu  0.90145621  0.55853352  0.94255958     0.44200
Cu1113     Cu  0.87198915  0.56145458  0.90067039     0.42000
Cu1114     Cu  0.90123455  0.60768831  0.91467694     0.43900
N1115       N  0.92012402  0.58292162  0.94917336    -0.34000
N1116       N  0.92131555  0.60060881  0.93965546    -0.28200
C1117       C  0.93721161  0.61105388  0.94797838    -0.04300
C1118       C  0.94619993  0.59913360  0.96318805     0.07900
C1119       C  0.93473936  0.58162895  0.96326562     0.01700
H1120       H  0.94246388  0.62569396  0.94273522     0.09300
H1121       H  0.93741268  0.56826788  0.97244750     0.08400
N1122       N  0.87873098  0.60621576  0.89080811    -0.35400
N1123       N  0.86925015  0.58900405  0.88647437    -0.27600
C1124       C  0.85637439  0.59170674  0.87098581    -0.02900
C1125       C  0.85717781  0.61160739  0.86469771     0.05800
C1126       C  0.87151212  0.62056947  0.87775441     0.03800
H1127       H  0.84672268  0.57984899  0.86494688     0.09000
H1128       H  0.87648146  0.63622079  0.87754387     0.07800
N1129       N  0.87586568  0.84066516  0.39287459    -0.26600
N1130       N  0.88645140  0.85760409  0.39297827    -0.34500
C1131       C  0.88738156  0.86492676  0.41198405     0.01700
C1132       C  0.87668822  0.85189114  0.42455421     0.07800
C1133       C  0.86962448  0.83660152  0.41186044    -0.05300
H1134       H  0.89607112  0.87815718  0.41637892     0.08400
H1135       H  0.86091683  0.82334930  0.41611817     0.09600
Cu1136     Cu  0.90063157  0.86755156  0.36711457     0.44200
Cu1137     Cu  0.87233668  0.82447944  0.36631009     0.42000
Cu1138     Cu  0.90076429  0.83845408  0.31930147     0.43900
N1139       N  0.91950473  0.87346915  0.34304486    -0.34000
N1140       N  0.92092180  0.86336443  0.32569754    -0.28200
C1141       C  0.93703358  0.87118521  0.31528150    -0.04300
C1142       C  0.94590061  0.88663746  0.32695707     0.07900
C1143       C  0.93419585  0.88743152  0.34423917     0.01700
H1144       H  0.94249191  0.86545312  0.30087312     0.09300
H1145       H  0.93671612  0.89700325  0.35737401     0.08400
N1146       N  0.87788799  0.81516735  0.32111837    -0.35400
N1147       N  0.86860831  0.81072100  0.33840948    -0.27600
C1148       C  0.85526857  0.79564169  0.33546878    -0.02900
C1149       C  0.85563295  0.78981135  0.31535677     0.05800
C1150       C  0.87016128  0.80266740  0.30655983     0.03800
H1151       H  0.84563118  0.78956191  0.34729672     0.09000
H1152       H  0.87492774  0.80271032  0.29084683     0.07800
N1153       N  0.87867677  0.84053116  0.60833549    -0.26600
N1154       N  0.88742311  0.85848083  0.60870219    -0.34500
C1155       C  0.88663395  0.86668242  0.59008077     0.01700
C1156       C  0.87670974  0.85316686  0.57729742     0.07800
C1157       C  0.87185276  0.83671203  0.58950011    -0.05300
H1158       H  0.89341271  0.88108308  0.58606538     0.08400
H1159       H  0.86493280  0.82254511  0.58490474     0.09600
Cu1160     Cu  0.90184403  0.86864709  0.63445607     0.44200
Cu1161     Cu  0.87826590  0.82272142  0.63390827     0.42000
Cu1162     Cu  0.90169313  0.84075828  0.68241750     0.43900
N1163       N  0.92079946  0.87504817  0.65843410    -0.34000
N1164       N  0.92194421  0.86547598  0.67605042    -0.28200
C1165       C  0.93802033  0.87344343  0.68645224    -0.04300
C1166       C  0.94718357  0.88843795  0.67446467     0.07900
C1167       C  0.93566021  0.88879852  0.65703053     0.01700
H1168       H  0.94327764  0.86806672  0.70104889     0.09300
H1169       H  0.93841384  0.89792911  0.64366822     0.08400
N1170       N  0.88041356  0.81618664  0.67964645    -0.35400
N1171       N  0.87388163  0.80951017  0.66179836    -0.27600
C1172       C  0.86112398  0.79387293  0.66438711    -0.02900
C1173       C  0.85888358  0.79031139  0.68479524     0.05800
C1174       C  0.87119736  0.80485144  0.69419623     0.03800
H1175       H  0.85309670  0.78632309  0.65218382     0.09000
H1176       H  0.87316410  0.80705760  0.71035049     0.07800
N1177       N  0.39389899  0.80837003  0.90723633    -0.26600
N1178       N  0.39357596  0.81390009  0.92644249    -0.34500
C1179       C  0.41277240  0.81525898  0.93331012     0.01700
C1180       C  0.42587523  0.81024960  0.91754586     0.07800
C1181       C  0.41326935  0.80581207  0.90125087    -0.05300
H1182       H  0.41683999  0.82019505  0.94844136     0.08400
H1183       H  0.41766345  0.80095889  0.88619202     0.09600
Cu1184     Cu  0.36666369  0.82140259  0.94063510     0.44200
Cu1185     Cu  0.36744520  0.80504491  0.89100491     0.42000
Cu1186     Cu  0.31868482  0.82298024  0.91224302     0.43900
N1187       N  0.34172090  0.83843966  0.94900199    -0.34000
N1188       N  0.32454002  0.84070263  0.93872777    -0.28200
C1189       C  0.31412838  0.85651930  0.94712468    -0.04300
C1190       C  0.32560402  0.86439000  0.96317509     0.07900
C1191       C  0.34275964  0.85234799  0.96377564     0.01700
H1192       H  0.30014160  0.86276948  0.94108867     0.09300
H1193       H  0.35599960  0.85460073  0.97329437     0.08400
N1194       N  0.32142815  0.80250567  0.88724589    -0.35400
N1195       N  0.33937967  0.79688143  0.87998647    -0.27600
C1196       C  0.33692619  0.78281871  0.86548446    -0.02900
C1197       C  0.31643822  0.77897430  0.86310435     0.05800
C1198       C  0.30693666  0.79191097  0.87708342     0.03800
H1199       H  0.34939715  0.77545603  0.85763131     0.09000
H1200       H  0.29080989  0.79280579  0.88029895     0.07800
N1201       N  0.61089611  0.81442968  0.91080736    -0.26600
N1202       N  0.61083185  0.82052263  0.92984350    -0.34500
C1203       C  0.59166871  0.82044589  0.93689364     0.01700
C1204       C  0.57897384  0.81389557  0.92141891     0.07800
C1205       C  0.59176784  0.81004013  0.90511354    -0.05300
H1206       H  0.58741587  0.82502126  0.95208323     0.08400
H1207       H  0.58746841  0.80501962  0.89007094     0.09600
Cu1208     Cu  0.63699442  0.83042471  0.94370582     0.44200
Cu1209     Cu  0.63765270  0.81298038  0.89471276     0.42000
Cu1210     Cu  0.68644027  0.82856130  0.91904062     0.43900
N1211       N  0.66153614  0.84738987  0.95288216    -0.34000
N1212       N  0.67972388  0.84803362  0.94426859    -0.28200
C1213       C  0.69040491  0.86327039  0.95336050    -0.04300
C1214       C  0.67803184  0.87243244  0.96810905     0.07900
C1215       C  0.66004694  0.86176651  0.96716197     0.01700
H1216       H  0.70550614  0.86802395  0.94889120     0.09300
H1217       H  0.64626265  0.86492373  0.97561812     0.08400
N1218       N  0.68384762  0.80893374  0.89316903    -0.35400
N1219       N  0.66612681  0.80529010  0.88425797    -0.27600
C1220       C  0.66880609  0.79299757  0.86825674    -0.02900
C1221       C  0.68909312  0.78803400  0.86675038     0.05800
C1222       C  0.69833113  0.79830862  0.88289508     0.03800
H1223       H  0.65655761  0.78722866  0.85890829     0.09000
H1224       H  0.71432721  0.79807766  0.88680290     0.07800
C1225       C  0.23122291  0.66093588  0.73793112     0.03000
C1226       C  0.24001090  0.67959533  0.73192907     0.03000
C1227       C  0.25828188  0.68609325  0.74123105     0.03000
C1228       C  0.26460021  0.67690831  0.75950399     0.03000
C1229       C  0.25579066  0.65836378  0.76553105     0.03000
C1230       C  0.23725535  0.65209676  0.75657801     0.03000
C1231       C  0.72963008  0.68460513  0.75948633     0.03000
C1232       C  0.73586588  0.69369407  0.74108104     0.03000
C1233       C  0.75437966  0.68731625  0.73208295     0.03000
C1234       C  0.76324732  0.66866480  0.73817564     0.03000
C1235       C  0.75698135  0.65972365  0.75670246     0.03000
C1236       C  0.73827220  0.66589988  0.76534241     0.03000
C1237       C  0.74017385  0.65993385  0.23460602     0.03000
C1238       C  0.73131862  0.67838087  0.24120326     0.03000
C1239       C  0.73758583  0.68671370  0.25993120     0.03000
C1240       C  0.75630630  0.68039317  0.26837718     0.03000
C1241       C  0.76459423  0.66135059  0.26224055     0.03000
C1242       C  0.75960682  0.65431556  0.24241210     0.03000
C1243       C  0.73301604  0.16063527  0.76034518     0.03000
C1244       C  0.73988030  0.15190103  0.74186390     0.03000
C1245       C  0.75830831  0.15896282  0.73328030     0.03000
C1246       C  0.76631135  0.17779788  0.73970984     0.03000
C1247       C  0.75925184  0.18675258  0.75790510     0.03000
C1248       C  0.74106605  0.17953895  0.76676215     0.03000
N1249       N  0.07362029  0.31284003  0.87641329    -0.26600
N1250       N  0.05610831  0.31135688  0.88598097    -0.34500
C1251       C  0.04793045  0.32997002  0.88819509     0.01700
C1252       C  0.06106850  0.34395121  0.87948312     0.07800
C1253       C  0.07715803  0.33242049  0.87205445    -0.05300
H1254       H  0.03382201  0.33299882  0.89610088     0.08400
H1255       H  0.09096575  0.33792260  0.86502767     0.09600
Cu1256     Cu  0.04710455  0.28405038  0.89801722     0.44200
Cu1257     Cu  0.09203881  0.28778235  0.87251108     0.42000
Cu1258     Cu  0.08129527  0.23970387  0.90010881     0.43900
N1259       N  0.04313132  0.25981424  0.91718536    -0.34000
N1260       N  0.05519068  0.24383385  0.91953588    -0.28200
C1261       C  0.04846255  0.23349871  0.93617211    -0.04300
C1262       C  0.03163968  0.24382002  0.94438836     0.07900
C1263       C  0.02898298  0.26021525  0.93176126     0.01700
H1264       H  0.05597663  0.22034834  0.94257261     0.09300
H1265       H  0.01817055  0.27249136  0.93377563     0.08400
N1266       N  0.10533040  0.24372283  0.87818688    -0.35400
N1267       N  0.10864046  0.26138799  0.86916407    -0.27600
C1268       C  0.12446741  0.25982940  0.85639062    -0.02900
C1269       C  0.13202170  0.24027121  0.85694989     0.05800
C1270       C  0.11933061  0.23032664  0.87085806     0.03800
H1271       H  0.12965028  0.27211417  0.84683349     0.09000
H1272       H  0.12030551  0.21455055  0.87532421     0.07800
N1273       N  0.08595188  0.52663804  0.89017938    -0.26600
N1274       N  0.06652165  0.52855191  0.89472870    -0.34500
C1275       C  0.05771171  0.51016488  0.89441161     0.01700
C1276       C  0.07238764  0.49585772  0.88929486     0.07800
C1277       C  0.09013114  0.50697758  0.88656751    -0.05300
H1278       H  0.04192050  0.50742570  0.89815215     0.08400
H1279       H  0.10493708  0.50140623  0.88201590     0.09600
Cu1280     Cu  0.05434292  0.55624486  0.90269908     0.44200
Cu1281     Cu  0.10473280  0.55165809  0.88881203     0.42000
Cu1282     Cu  0.08498998  0.60221005  0.90402403     0.43900
N1283       N  0.04709901  0.58148257  0.91965389    -0.34000
N1284       N  0.05817005  0.59811318  0.92184788    -0.28200
C1285       C  0.05015587  0.60898916  0.93754928    -0.04300
C1286       C  0.03347220  0.59837121  0.94536396     0.07900
C1287       C  0.03218475  0.58123176  0.93344280     0.01700
H1288       H  0.05681899  0.62266858  0.94375713     0.09300
H1289       H  0.02203845  0.56849859  0.93569375     0.08400
N1290       N  0.11030627  0.59732857  0.88422927    -0.35400
N1291       N  0.11745878  0.57893561  0.88022779    -0.27600
C1292       C  0.13269800  0.58012938  0.86675975    -0.02900
C1293       C  0.13546215  0.60020598  0.86124172     0.05800
C1294       C  0.12107301  0.61076183  0.87292984     0.03800
H1295       H  0.14073104  0.56694594  0.86114167     0.09000
H1296       H  0.11812027  0.62692824  0.87261240     0.07800
C1297       C  0.24168783  0.18775817  0.76042285     0.03000
C1298       C  0.23376535  0.18121048  0.74156909     0.03000
C1299       C  0.24018699  0.16227933  0.73365042     0.03000
C1300       C  0.25835155  0.15331631  0.74095093     0.03000
C1301       C  0.26645205  0.15999752  0.75966917     0.03000
C1302       C  0.26002779  0.17896289  0.76759248     0.03000
C1303       C  0.24082222  0.68121515  0.26274129     0.03000
C1304       C  0.23264514  0.66252567  0.25592959     0.03000
C1305       C  0.24016281  0.65380337  0.23781059     0.03000
C1306       C  0.25885108  0.66067684  0.22975897     0.03000
C1307       C  0.26695432  0.67940234  0.23645629     0.03000
C1308       C  0.25949410  0.68812789  0.25461943     0.03000
C1309       C  0.74037030  0.15696575  0.26181909     0.03000
C1310       C  0.73323848  0.16492134  0.24318506     0.03000
C1311       C  0.74154294  0.18323799  0.23563309     0.03000
C1312       C  0.76014328  0.19041496  0.24367687     0.03000
C1313       C  0.76689865  0.18281979  0.26252949     0.03000
C1314       C  0.75875985  0.16447798  0.27004359     0.03000
N1315       N  0.11455416  0.00568534  0.39157375    -0.26600
N1316       N  0.10669228  0.98733265  0.39117111    -0.34500
C1317       C  0.10584218  0.97999217  0.41014844     0.01700
C1318       C  0.11397019  0.99447341  0.42306280     0.07800
C1319       C  0.11930859  0.01061273  0.41074334    -0.05300
H1320       H  0.09956059  0.96537835  0.41422259     0.08400
H1321       H  0.12548525  0.02511902  0.41536655     0.09600
Cu1322     Cu  0.09619259  0.97541342  0.36442811     0.44200
Cu1323     Cu  0.11705422  0.02237723  0.36552907     0.42000
Cu1324     Cu  0.09405657  0.00575733  0.31721593     0.43900
N1325       N  0.07791532  0.96900415  0.34008840    -0.34000
N1326       N  0.07551363  0.97967168  0.32322531    -0.28200
C1327       C  0.05913364  0.97188313  0.31321971    -0.04300
C1328       C  0.05111140  0.95590749  0.32469050     0.07900
C1329       C  0.06359723  0.95470138  0.34136395     0.01700
H1330       H  0.05273783  0.97818777  0.29947020     0.09300
H1331       H  0.06159084  0.94492382  0.35440077     0.08400
N1332       N  0.11505619  0.03050858  0.32017978    -0.35400
N1333       N  0.12255779  0.03580011  0.33807367    -0.27600
C1334       C  0.13604413  0.05084195  0.33591201    -0.02900
C1335       C  0.13756549  0.05577713  0.31568359     0.05800
C1336       C  0.12386669  0.04263815  0.30600816     0.03800
H1337       H  0.14446836  0.05749122  0.34836418     0.09000
H1338       H  0.12113963  0.04149000  0.28985667     0.07800
N1339       N  0.11671029  0.00805267  0.60698148    -0.26600
N1340       N  0.10800713  0.99010071  0.60701179    -0.34500
C1341       C  0.10711446  0.98303185  0.58792626     0.01700
C1342       C  0.11578988  0.99739301  0.57522325     0.07800
C1343       C  0.12185308  0.01305196  0.58794313    -0.05300
H1344       H  0.09991134  0.96891617  0.58358951     0.08400
H1345       H  0.12930460  0.02708064  0.58385368     0.09600
Cu1346     Cu  0.09624285  0.97854834  0.63341296     0.44200
Cu1347     Cu  0.11952700  0.02403989  0.63339411     0.42000
Cu1348     Cu  0.09550381  0.00755488  0.68156892     0.43900
N1349       N  0.07831258  0.97173501  0.65797140    -0.34000
N1350       N  0.07659002  0.98184640  0.67529121    -0.28200
C1351       C  0.06075271  0.97361534  0.68576623    -0.04300
C1352       C  0.05237576  0.95787330  0.67417348     0.07900
C1353       C  0.06407125  0.95732682  0.65687863     0.01700
H1354       H  0.05502566  0.97937350  0.70006091     0.09300
H1355       H  0.06166616  0.94779208  0.64369534     0.08400
N1356       N  0.11689477  0.03190286  0.67884978    -0.35400
N1357       N  0.12461306  0.03711422  0.66105110    -0.27600
C1358       C  0.13775568  0.05240176  0.66329017    -0.02900
C1359       C  0.13866060  0.05779074  0.68345572     0.05800
C1360       C  0.12535345  0.04425964  0.69307258     0.03800
H1361       H  0.14656160  0.05862367  0.65092075     0.09000
H1362       H  0.12208964  0.04352108  0.70914602     0.07800
C1363       C  0.25863328  0.17578355  0.22864942     0.03000
C1364       C  0.26599833  0.15767192  0.23756741     0.03000
C1365       C  0.25794150  0.15112843  0.25631024     0.03000
C1366       C  0.23946097  0.15952538  0.26328087     0.03000
C1367       C  0.23215360  0.17763647  0.25453035     0.03000
C1368       C  0.24001977  0.18407015  0.23566146     0.03000
C1369       C  0.20597265  0.12949977  0.29998285    -0.27500
C1370       C  0.19478255  0.11710129  0.28644345     0.06100
C1371       C  0.19849843  0.11922357  0.26548804     0.25700
C1372       C  0.21286459  0.13317765  0.25841501    -0.12000
C1373       C  0.22418382  0.14524329  0.27188118    -0.25900
C1374       C  0.22064653  0.14332771  0.29280327     0.36500
C1375       C  0.17982719  0.10158933  0.29403715     0.06100
F1376       F  0.18878472  0.10728753  0.25176399    -0.19700
H1377       H  0.21535156  0.13443992  0.24220901     0.15900
F1378       F  0.23132518  0.15478856  0.30621467    -0.23400
H1379       H  0.20332033  0.12855007  0.31617729     0.17700
C1380       C  0.18461285  0.08899312  0.31062596     0.25700
C1381       C  0.17092147  0.07408935  0.31715543    -0.12000
C1382       C  0.15212735  0.07103444  0.30731340    -0.26000
C1383       C  0.14728485  0.08345933  0.29066888     0.36600
C1384       C  0.16088893  0.09866544  0.28427820    -0.27600
F1385       F  0.20281995  0.09058252  0.32023897    -0.19800
H1386       H  0.17524268  0.06466626  0.32990891     0.15900
F1387       F  0.12913849  0.08143836  0.28104273    -0.23500
H1388       H  0.15646619  0.10833462  0.27174982     0.17800
C1389       C  0.11807193  0.01297508  0.51992619    -0.27500
C1390       C  0.11734981  0.99403132  0.51022855     0.06100
C1391       C  0.11684066  0.97624489  0.52190827     0.25700
C1392       C  0.11667323  0.97749787  0.54304104    -0.12000
C1393       C  0.11699916  0.99647692  0.55285231    -0.25900
C1394       C  0.11781289  0.01428228  0.54104087     0.36500
C1395       C  0.11694114  0.99312065  0.48791698     0.06100
F1396       F  0.11678090  0.95768698  0.51288684    -0.19700
H1397       H  0.11636015  0.96355444  0.55171610     0.15900
F1398       F  0.11747816  0.03299506  0.54968478    -0.23400
H1399       H  0.11833602  0.02682938  0.51107518     0.17700
C1400       C  0.10107688  0.98315825  0.47766467     0.25700
C1401       C  0.10041988  0.98328106  0.45649455    -0.12000
C1402       C  0.11540698  0.99353870  0.44532582    -0.26000
C1403       C  0.13138892  0.00329442  0.45563058     0.36600
C1404       C  0.13208846  0.00307479  0.47676576    -0.27600
F1405       F  0.08580802  0.97405793  0.48812318    -0.19800
H1406       H  0.08784643  0.97588546  0.44886023     0.15900
F1407       F  0.14653659  0.01272600  0.44531605    -0.23500
H1408       H  0.14447353  0.01070892  0.48448708     0.17800
C1409       C  0.19347728  0.12859694  0.73089827    -0.27500
C1410       C  0.19624157  0.11830880  0.71245283     0.06100
C1411       C  0.21324171  0.12327089  0.70033866     0.25700
C1412       C  0.22723128  0.13805184  0.70677836    -0.12000
C1413       C  0.22445730  0.14827048  0.72530542    -0.25900
C1414       C  0.20737456  0.14333745  0.73730270     0.36500
C1415       C  0.18099319  0.10297444  0.70567547     0.06100
F1416       F  0.21663997  0.11340581  0.68254346    -0.19700
H1417       H  0.24029939  0.14135548  0.69735839     0.15900
F1418       F  0.20442732  0.15235340  0.75562285    -0.23400
H1419       H  0.18044434  0.12524451  0.74038300     0.17700
C1420       C  0.17474006  0.08687549  0.71833432     0.25700
C1421       C  0.16042572  0.07255203  0.71144640    -0.12000
C1422       C  0.15206203  0.07405122  0.69187088    -0.26000
C1423       C  0.15779650  0.09070160  0.67962739     0.36600
C1424       C  0.17213860  0.10479259  0.68643359    -0.27600
F1425       F  0.18298166  0.08459493  0.73708332    -0.19800
H1426       H  0.15637681  0.05995401  0.72117594     0.15900
F1427       F  0.14931779  0.09370842  0.66109229    -0.23500
H1428       H  0.17619016  0.11737153  0.67666400     0.17800
C1429       C  0.18036095  0.23848575  0.82457655    -0.27500
C1430       C  0.18013767  0.21857426  0.81690867     0.06100
C1431       C  0.16446754  0.20544186  0.82341983     0.25700
C1432       C  0.14929164  0.21226185  0.83694137    -0.12000
C1433       C  0.14925085  0.23234920  0.84421128    -0.25900
C1434       C  0.16524812  0.24530464  0.83805190     0.36500
C1435       C  0.19649950  0.21147530  0.80261673     0.06100
F1436       F  0.16339768  0.18617320  0.81614766    -0.19700
H1437       H  0.13718655  0.20198416  0.84121861     0.15900
F1438       F  0.16661633  0.26454532  0.84535044    -0.23400
H1439       H  0.19246280  0.24877872  0.82030331     0.17700
C1440       C  0.20190148  0.22266455  0.78515323     0.25700
C1441       C  0.21700010  0.21542920  0.77174831    -0.12000
C1442       C  0.22717055  0.19697304  0.77548486    -0.26000
C1443       C  0.22191965  0.18602403  0.79313804     0.36600
C1444       C  0.20691079  0.19323623  0.80645706    -0.27600
F1445       F  0.19208385  0.24024660  0.78063202    -0.19800
H1446       H  0.22058170  0.22422032  0.75836947     0.15900
F1447       F  0.23087002  0.16789215  0.79726714    -0.23500
H1448       H  0.20334090  0.18442426  0.81985179     0.17800
C1449       C  0.08312151  0.43916427  0.88744359    -0.27500
C1450       C  0.06368081  0.43132230  0.88363794     0.06100
C1451       C  0.04706911  0.44462783  0.88195781     0.25700
C1452       C  0.05002437  0.46558958  0.88374554    -0.12000
C1453       C  0.06955657  0.47358099  0.88742534    -0.25900
C1454       C  0.08609316  0.46005100  0.88947139     0.36500
C1455       C  0.06108681  0.40919710  0.88145070     0.06100
F1456       F  0.02812299  0.43737227  0.87812042    -0.19700
H1457       H  0.03701615  0.47555471  0.88198405     0.15900
F1458       F  0.10504533  0.46678920  0.89404615    -0.23400
H1459       H  0.09601766  0.42900017  0.88908925     0.17700
C1460       C  0.07124552  0.39871689  0.86590677     0.25700
C1461       C  0.07050637  0.37756338  0.86501941    -0.12000
C1462       C  0.05975572  0.36643689  0.87969968    -0.26000
C1463       C  0.04900097  0.37706956  0.89494359     0.36600
C1464       C  0.04964511  0.39830681  0.89569332    -0.27600
F1465       F  0.08207564  0.40898546  0.85170708    -0.19800
H1466       H  0.07862809  0.36987709  0.85293248     0.15900
F1467       F  0.03884035  0.36708891  0.90980119    -0.23500
H1468       H  0.04188195  0.40623716  0.90787752     0.17800
C1469       C  0.18935806  0.64735266  0.78899209    -0.27500
C1470       C  0.19331363  0.62986475  0.80051828     0.06100
C1471       C  0.21147942  0.61901236  0.79668322     0.25700
C1472       C  0.22521961  0.62554939  0.78171774    -0.12000
C1473       C  0.22138481  0.64319524  0.77032148    -0.25900
C1474       C  0.20320697  0.65406053  0.77426279     0.36500
C1475       C  0.17827744  0.62268698  0.81604319     0.06100
F1476       F  0.21633073  0.60242568  0.80790952    -0.19700
H1477       H  0.23901191  0.61688044  0.77929457     0.15900
F1478       F  0.19911357  0.67170112  0.76442284    -0.23400
H1479       H  0.17547514  0.65593007  0.79141697     0.17700
C1480       C  0.16954319  0.63593212  0.83052265     0.25700
C1481       C  0.15557469  0.62864622  0.84499454    -0.12000
C1482       C  0.14989684  0.60803842  0.84538916    -0.26000
C1483       C  0.15831927  0.59499431  0.83045688     0.36600
C1484       C  0.17228665  0.60226090  0.81617720    -0.27600
F1485       F  0.17489989  0.65582242  0.83107494    -0.19800
H1486       H  0.14945678  0.63913204  0.85611825     0.15900
F1487       F  0.15274437  0.57523652  0.82899617    -0.23500
H1488       H  0.17821509  0.59184190  0.80487285     0.17800
C1489       C  0.69810443  0.72034733  0.79283765    -0.27500
C1490       C  0.71296383  0.72755433  0.80657789     0.06100
C1491       C  0.73282334  0.71956082  0.80511485     0.25700
C1492       C  0.73765128  0.70517249  0.79019172    -0.12000
C1493       C  0.72301316  0.69853006  0.77609763    -0.25900
C1494       C  0.70308363  0.70613122  0.77764086     0.36500
C1495       C  0.70785948  0.74364464  0.82197367     0.06100
F1496       F  0.74788487  0.72627532  0.81751173    -0.19700
H1497       H  0.75314299  0.69954894  0.78926414     0.15900
F1498       F  0.68843094  0.69977910  0.76460720    -0.23400
H1499       H  0.68255739  0.72575842  0.79383255     0.17700
C1500       C  0.69599602  0.76066370  0.81658870     0.25700
C1501       C  0.69077603  0.77533419  0.83111932    -0.12000
C1502       C  0.69754072  0.77379203  0.85130291    -0.26000
C1503       C  0.70994185  0.75722561  0.85666963     0.36600
C1504       C  0.71487485  0.74224607  0.84219102    -0.27600
F1505       F  0.68955708  0.76330733  0.79719519    -0.19800
H1506       H  0.68118027  0.78795024  0.82660417     0.15900
F1507       F  0.71626109  0.75485949  0.87613243    -0.23500
H1508       H  0.72374520  0.72922932  0.84697970     0.17800
C1509       C  0.28181371  0.75085607  0.82587854    -0.27500
C1510       C  0.29370307  0.73363278  0.82099581     0.06100
C1511       C  0.31250350  0.73113089  0.83093547     0.25700
C1512       C  0.31939666  0.74569890  0.84481634    -0.12000
C1513       C  0.30773466  0.76309435  0.84943003    -0.25900
C1514       C  0.28863674  0.76535010  0.84003998     0.36500
C1515       C  0.28658541  0.71849229  0.80551403     0.06100
F1516       F  0.32414763  0.71440254  0.82752920    -0.19700
H1517       H  0.33397694  0.74323378  0.85208162     0.15900
F1518       F  0.27695417  0.78195538  0.84382820    -0.23400
H1519       H  0.26738360  0.75338602  0.81834167     0.17700
C1520       C  0.26637974  0.71138422  0.80557461     0.25700
C1521       C  0.25974566  0.69760602  0.79078527    -0.12000
C1522       C  0.27301428  0.69039640  0.77563059    -0.26000
C1523       C  0.29329959  0.69708260  0.77568415     0.36600
C1524       C  0.29995959  0.71104502  0.79043124    -0.27600
F1525       F  0.25305547  0.71749251  0.82011910    -0.19800
H1526       H  0.24401906  0.69265728  0.79100752     0.15900
F1527       F  0.30666396  0.69010171  0.76159317    -0.23500
H1528       H  0.31555487  0.71630193  0.78983899     0.17800
C1529       C  0.48129664  0.81233400  0.90129154    -0.27500
C1530       C  0.49128009  0.80989263  0.91993425     0.06100
C1531       C  0.47973249  0.80767309  0.93771849     0.25700
C1532       C  0.45850551  0.80772552  0.93676956    -0.12000
C1533       C  0.44840694  0.81010507  0.91811053    -0.25900
C1534       C  0.46006538  0.81254545  0.90031858     0.36500
C1535       C  0.51372112  0.81032153  0.92077925     0.06100
F1536       F  0.48899222  0.80510657  0.95595923    -0.19700
H1537       H  0.44999412  0.80567635  0.95068056     0.15900
F1538       F  0.45111687  0.81589135  0.88207212    -0.23400
H1539       H  0.48999520  0.81451601  0.88749619     0.17700
C1540       C  0.52543918  0.79739814  0.90842219     0.25700
C1541       C  0.54666650  0.79849617  0.90888208    -0.12000
C1542       C  0.55653083  0.81244715  0.92168200    -0.26000
C1543       C  0.54472281  0.82527555  0.93415352     0.36600
C1544       C  0.52352266  0.82416045  0.93366007    -0.27600
F1545       F  0.51635324  0.78355098  0.89612469    -0.19800
H1546       H  0.55539321  0.78832982  0.89928617     0.15900
F1547       F  0.55350548  0.83953327  0.94616896    -0.23500
H1548       H  0.51469655  0.83447046  0.94302602     0.17800
C1549       C  0.82971270  0.74122336  0.69238461    -0.27500
C1550       C  0.81306780  0.74757177  0.70425105     0.06100
C1551       C  0.81243945  0.76803185  0.71079603     0.25700
C1552       C  0.82806176  0.78163157  0.70556374    -0.12000
C1553       C  0.84443862  0.77526983  0.69342825    -0.25900
C1554       C  0.84509817  0.75490283  0.68688133     0.36500
C1555       C  0.79707648  0.73261970  0.71058448     0.06100
F1556       F  0.79630282  0.77512002  0.72158194    -0.19700
H1557       H  0.82688774  0.79738079  0.71022111     0.15900
F1558       F  0.86068944  0.74823634  0.67507000    -0.23400
H1559       H  0.83090028  0.72556558  0.68744503     0.17700
C1560       C  0.78828916  0.71865679  0.69679427     0.25700
C1561       C  0.77421126  0.70399887  0.70354033    -0.12000
C1562       C  0.76840429  0.70320885  0.72404186    -0.26000
C1563       C  0.77683439  0.71744848  0.73761708     0.36600
C1564       C  0.79102370  0.73177999  0.73099641    -0.27600
F1565       F  0.79306673  0.71935987  0.67676695    -0.19800
H1566       H  0.76782049  0.69333882  0.69276886     0.15900
F1567       F  0.77159170  0.71728471  0.75752685    -0.23500
H1568       H  0.79765458  0.74200647  0.74204839     0.17800
C1569       C  0.82083720  0.75901339  0.27998780    -0.27500
C1570       C  0.81414691  0.74340618  0.29305992     0.06100
C1571       C  0.82275815  0.74236192  0.31258081     0.25700
C1572       C  0.83664139  0.75707373  0.31918542    -0.12000
C1573       C  0.84268834  0.77322470  0.30655895    -0.25900
C1574       C  0.83496449  0.77376437  0.28661154     0.36500
C1575       C  0.79854546  0.72808026  0.28638355     0.06100
F1576       F  0.81802800  0.72686264  0.32528029    -0.19700
H1577       H  0.84267935  0.75578137  0.33441926     0.15900
F1578       F  0.84028715  0.78899095  0.27383307    -0.23400
H1579       H  0.81469727  0.76010652  0.26477441     0.17700
C1580       C  0.78173213  0.72300082  0.29878264     0.25700
C1581       C  0.76791019  0.70778360  0.29286443    -0.12000
C1582       C  0.77064254  0.69701817  0.27462859    -0.26000
C1583       C  0.78680800  0.70283137  0.26177537     0.36600
C1584       C  0.80055312  0.71807650  0.26762783    -0.27600
F1585       F  0.77845778  0.73296235  0.31654032    -0.19800
H1586       H  0.75527561  0.70409246  0.30274624     0.15900
F1587       F  0.78907971  0.69408035  0.24326008    -0.23500
H1588       H  0.81303273  0.72183612  0.25757735     0.17800
C1589       C  0.87433120  0.87247817  0.47832430    -0.27500
C1590       C  0.87309018  0.85450787  0.48968932     0.06100
C1591       C  0.87239061  0.83574878  0.47944550     0.25700
C1592       C  0.87315078  0.83507187  0.45827292    -0.12000
C1593       C  0.87486711  0.85301474  0.44690962    -0.25900
C1594       C  0.87531691  0.87179833  0.45715494     0.36500
C1595       C  0.87306610  0.85534834  0.51216651     0.06100
F1596       F  0.87177641  0.81801128  0.48990526    -0.19700
H1597       H  0.87301662  0.82040547  0.45081121     0.15900
F1598       F  0.87631682  0.88955380  0.44678263    -0.23400
H1599       H  0.87449775  0.88710947  0.48587092     0.17700
C1600       C  0.88767061  0.86688305  0.52267703     0.25700
C1601       C  0.88831153  0.86657265  0.54384599    -0.12000
C1602       C  0.87452521  0.85469586  0.55498172    -0.26000
C1603       C  0.85944188  0.84373072  0.54447406     0.36600
C1604       C  0.85875860  0.84411556  0.52328164    -0.27600
F1605       F  0.90195485  0.87771418  0.51249974    -0.19800
H1606       H  0.90017282  0.87506854  0.55144096     0.15900
F1607       F  0.84522385  0.83277333  0.55458152    -0.23500
H1608       H  0.84705255  0.83553470  0.51550935     0.17800
C1609       C  0.82252886  0.64589164  0.83264656    -0.27500
C1610       C  0.81637225  0.63243757  0.81708887     0.06100
C1611       C  0.82523236  0.61298258  0.81654176     0.25700
C1612       C  0.83902682  0.60689728  0.83157720    -0.12000
C1613       C  0.84460950  0.61996038  0.84762016    -0.25900
C1614       C  0.83648714  0.63976991  0.84775465     0.36500
C1615       C  0.80118539  0.63884845  0.80126505     0.06100
F1616       F  0.82085046  0.59986822  0.80123903    -0.19700
H1617       H  0.84531547  0.59170334  0.83067355     0.15900
F1618       F  0.84122515  0.65287488  0.86294261    -0.23400
H1619       H  0.81611135  0.66104421  0.83339534     0.17700
C1620       C  0.78436416  0.62656437  0.79591522     0.25700
C1621       C  0.77038845  0.63291375  0.78097598    -0.12000
C1622       C  0.77283714  0.65158380  0.77096073    -0.26000
C1623       C  0.78961738  0.66382247  0.77641254     0.36600
C1624       C  0.80350627  0.65751707  0.79129365    -0.27600
F1625       F  0.78096578  0.60874214  0.80564772    -0.19800
H1626       H  0.75750385  0.62332045  0.77742121     0.15900
F1627       F  0.79233766  0.68228431  0.76775669    -0.23500
H1628       H  0.81620426  0.66730794  0.79502129     0.17800
C1629       C  0.82321224  0.20657655  0.83292683    -0.27500
C1630       C  0.81783880  0.21881682  0.81622371     0.06100
C1631       C  0.82683618  0.23807839  0.81452540     0.25700
C1632       C  0.84075518  0.24487589  0.82915931    -0.12000
C1633       C  0.84606439  0.23278728  0.84603072    -0.25900
C1634       C  0.83709521  0.21343626  0.84769422     0.36500
C1635       C  0.80314809  0.21132219  0.80053308     0.06100
F1636       F  0.82255925  0.25019143  0.79841986    -0.19700
H1637       H  0.84750186  0.25970886  0.82710574     0.15900
F1638       F  0.84111692  0.20138564  0.86388468    -0.23400
H1639       H  0.81635484  0.19174169  0.83472275     0.17700
C1640       C  0.80606284  0.19232200  0.79119288     0.25700
C1641       C  0.79203222  0.18503765  0.77694907    -0.12000
C1642       C  0.77471507  0.19644961  0.77150149    -0.26000
C1643       C  0.77204417  0.21575602  0.78035752     0.36600
C1644       C  0.78613251  0.22306614  0.79472567    -0.27600
F1645       F  0.82264127  0.18083100  0.79569183    -0.19800
H1646       H  0.79448285  0.17010772  0.77042210     0.15900
F1647       F  0.75599932  0.22762327  0.77507334    -0.23500
H1648       H  0.78357448  0.23781835  0.80157989     0.17800
C1649       C  0.89450668  0.40522635  0.93392922    -0.27500
C1650       C  0.87754352  0.41418924  0.92446743     0.06100
C1651       C  0.86357774  0.40165751  0.91422459     0.25700
C1652       C  0.86668897  0.38064903  0.91339386    -0.12000
C1653       C  0.88360417  0.37169877  0.92293212    -0.25900
C1654       C  0.89748760  0.38420063  0.93331102     0.36500
C1655       C  0.87498922  0.43660838  0.92486769     0.06100
F1656       F  0.84673073  0.40965562  0.90533799    -0.19700
H1657       H  0.85567593  0.37132024  0.90548265     0.15900
F1658       F  0.91437488  0.37626495  0.94216355    -0.23400
H1659       H  0.90572919  0.41459097  0.94150239     0.17700
C1660       C  0.87728940  0.44756803  0.94305674     0.25700
C1661       C  0.87673126  0.46878063  0.94298035    -0.12000
C1662       C  0.87378684  0.47956905  0.92483048    -0.26000
C1663       C  0.87059291  0.46855256  0.90672588     0.36600
C1664       C  0.87128363  0.44730761  0.90681333    -0.27600
F1665       F  0.88013497  0.43776419  0.96094119    -0.19800
H1666       H  0.87880744  0.47677841  0.95719991     0.15900
F1667       F  0.86791830  0.47813439  0.88871286    -0.23500
H1668       H  0.86968774  0.43922451  0.89256932     0.17800
C1669       C  0.16396842  0.74589561  0.71728463    -0.27500
C1670       C  0.18154955  0.74135803  0.70576467     0.06100
C1671       C  0.18491059  0.75252963  0.68790072     0.25700
C1672       C  0.17096182  0.76735603  0.68157426    -0.12000
C1673       C  0.15316068  0.77166162  0.69276418    -0.25900
C1674       C  0.14997179  0.76090218  0.71095424     0.36500
C1675       C  0.19646920  0.72529216  0.71237486     0.06100
F1676       F  0.20195576  0.74943413  0.67664875    -0.19700
H1677       H  0.17422545  0.77555506  0.66773243     0.15900
F1678       F  0.13299909  0.76424091  0.72222234    -0.23400
H1679       H  0.16080228  0.73748906  0.73103095     0.17700
C1680       C  0.20346510  0.72439911  0.73256153     0.25700
C1681       C  0.21791073  0.70981354  0.73840391    -0.12000
C1682       C  0.22577230  0.69563527  0.72441237    -0.26000
C1683       C  0.21879709  0.69633324  0.70427666     0.36600
C1684       C  0.20432520  0.71099946  0.69836101    -0.27600
F1685       F  0.19671744  0.73792450  0.74661914    -0.19800
H1686       H  0.22288358  0.70942837  0.75408325     0.15900
F1687       F  0.22605671  0.68300100  0.69030688    -0.23500
H1688       H  0.19911372  0.71107268  0.68277197     0.17800
C1689       C  0.18392283  0.75155138  0.30824919    -0.27500
C1690       C  0.18121535  0.74141676  0.28969593     0.06100
C1691       C  0.16383995  0.74621211  0.27796572     0.25700
C1692       C  0.14946808  0.76056939  0.28491768    -0.12000
C1693       C  0.15195243  0.77022285  0.30379483    -0.25900
C1694       C  0.16960402  0.76575191  0.31521109     0.36500
C1695       C  0.19656882  0.72591546  0.28294232     0.06100
F1696       F  0.16021403  0.73630509  0.26025499    -0.19700
H1697       H  0.13593411  0.76343959  0.27597212     0.15900
F1698       F  0.17311464  0.77515940  0.33322112    -0.23400
H1699       H  0.19724677  0.74845473  0.31744063     0.17700
C1700       C  0.20527155  0.72674513  0.26345208     0.25700
C1701       C  0.21981770  0.71234620  0.25741434    -0.12000
C1702       C  0.22622968  0.69679757  0.27060373    -0.26000
C1703       C  0.21778130  0.69602387  0.29019508     0.36600
C1704       C  0.20317785  0.71049613  0.29628340    -0.27600
F1705       F  0.20011904  0.74179728  0.25036463    -0.19800
H1706       H  0.22605768  0.71323854  0.24221509     0.15900
F1707       F  0.22377100  0.68152753  0.30352808    -0.23500
H1708       H  0.19686776  0.70956517  0.31143911     0.17800
C1709       C  0.05674741  0.80006397  0.47746500    -0.27500
C1710       C  0.07547186  0.79865147  0.48765818     0.06100
C1711       C  0.09338584  0.79601330  0.47627523     0.25700
C1712       C  0.09257842  0.79556026  0.45508856    -0.12000
C1713       C  0.07393804  0.79778705  0.44481407    -0.25900
C1714       C  0.05591966  0.79962401  0.45626858     0.36500
C1715       C  0.07628334  0.80070388  0.51005074     0.06100
F1716       F  0.11179508  0.79487093  0.48557792    -0.19700
H1717       H  0.10672227  0.79424273  0.44675845     0.15900
F1718       F  0.03746911  0.80084848  0.44708359    -0.23400
H1719       H  0.04271344  0.80163970  0.48597062     0.17700
C1720       C  0.06668309  0.81717433  0.51978118     0.25700
C1721       C  0.06770080  0.81922140  0.54084949    -0.12000
C1722       C  0.07855609  0.80511247  0.55260156    -0.26000
C1723       C  0.08820212  0.78863596  0.54290421     0.36600
C1724       C  0.08695913  0.78643788  0.52181345    -0.27600
F1725       F  0.05689711  0.83168485  0.50885848    -0.19800
H1726       H  0.06039255  0.83218177  0.54793901     0.15900
F1727       F  0.09835885  0.77437409  0.55380514    -0.23500
H1728       H  0.09424410  0.77350111  0.51465155     0.17800
C1729       C  0.81532304  0.09108392  0.68369829    -0.27500
C1730       C  0.81804120  0.10067123  0.70257352     0.06100
C1731       C  0.83528113  0.09534179  0.71424784     0.25700
C1732       C  0.84957087  0.08117175  0.70691376    -0.12000
C1733       C  0.84715366  0.07214475  0.68773441    -0.25900
C1734       C  0.82963008  0.07703484  0.67633455     0.36500
C1735       C  0.80265950  0.11579665  0.71008270     0.06100
F1736       F  0.83879506  0.10443990  0.73240726    -0.19700
H1737       H  0.86297067  0.07787412  0.71591379     0.15900
F1738       F  0.82615962  0.06806654  0.65809400    -0.23400
H1739       H  0.80197413  0.09440559  0.67462865     0.17700
C1740       C  0.79551091  0.13178661  0.69766401     0.25700
C1741       C  0.78083760  0.14564901  0.70492206    -0.12000
C1742       C  0.77291565  0.14379556  0.72462711    -0.26000
C1743       C  0.78021666  0.12794803  0.73705280     0.36600
C1744       C  0.79477108  0.11413323  0.72981885    -0.27600
F1745       F  0.80313694  0.13436916  0.67870280    -0.19800
H1746       H  0.77574852  0.15789238  0.69519850     0.15900
F1747       F  0.77352756  0.12604924  0.75645342    -0.23500
H1748       H  0.79980620  0.10197980  0.73968656     0.17800
C1749       C  0.82350840  0.08865897  0.29137493    -0.27500
C1750       C  0.82227013  0.10913430  0.29763188     0.06100
C1751       C  0.83798321  0.11690386  0.30984579     0.25700
C1752       C  0.85423195  0.10446642  0.31587632    -0.12000
C1753       C  0.85539808  0.08388747  0.30996600    -0.25900
C1754       C  0.83985160  0.07614606  0.29744714     0.36500
C1755       C  0.80502469  0.12252268  0.29098367     0.06100
F1756       F  0.83791050  0.13672107  0.31559743    -0.19700
H1757       H  0.86604792  0.11109552  0.32521315     0.15900
F1758       F  0.83995965  0.05633850  0.29173806    -0.23400
H1759       H  0.81157992  0.08223005  0.28202695     0.17700
C1760       C  0.79986543  0.12405801  0.27032553     0.25700
C1761       C  0.78446819  0.13735788  0.26400337    -0.12000
C1762       C  0.77383194  0.14954801  0.27800392    -0.26000
C1763       C  0.77863712  0.14790839  0.29870106     0.36600
C1764       C  0.79409051  0.13448862  0.30510770    -0.27600
F1765       F  0.81032757  0.11336344  0.25609317    -0.19800
H1766       H  0.78105833  0.13846391  0.24796548     0.15900
F1767       F  0.76847510  0.15925638  0.31263171    -0.23500
H1768       H  0.79760087  0.13348825  0.32113354     0.17800
C1769       C  0.95986973  0.05067601  0.47772981    -0.27500
C1770       C  0.94207037  0.05467847  0.48888047     0.06100
C1771       C  0.92384038  0.05858988  0.47832002     0.25700
C1772       C  0.92344884  0.05801401  0.45711477    -0.12000
C1773       C  0.94110756  0.05331515  0.44599488    -0.25900
C1774       C  0.95942358  0.04985328  0.45653429     0.36500
C1775       C  0.94243447  0.05401826  0.51142231     0.06100
F1776       F  0.90617968  0.06208557  0.48846877    -0.19700
H1777       H  0.90909543  0.06056841  0.44944301     0.15900
F1778       F  0.97699721  0.04594116  0.44641622    -0.23400
H1779       H  0.97419174  0.04810271  0.48546715     0.17700
C1780       C  0.95179419  0.03774170  0.52170084     0.25700
C1781       C  0.95102100  0.03662164  0.54286829    -0.12000
C1782       C  0.94064944  0.05147718  0.55418634    -0.26000
C1783       C  0.93180222  0.06805403  0.54399088     0.36600
C1784       C  0.93282670  0.06933592  0.52283661    -0.27600
F1785       F  0.96081730  0.02236163  0.51127075    -0.19800
H1786       H  0.95780604  0.02362363  0.55033578     0.15900
F1787       F  0.92229053  0.08311249  0.55444900    -0.23500
H1788       H  0.92596315  0.08227928  0.51533969     0.17800
C1789       C  0.81279089  0.64523502  0.21844524    -0.27500
C1790       C  0.80799489  0.64115786  0.19811942     0.06100
C1791       C  0.78737514  0.64064029  0.19253951     0.25700
C1792       C  0.77202291  0.64405110  0.20700511    -0.12000
C1793       C  0.77654043  0.64833398  0.22759869    -0.25900
C1794       C  0.79756009  0.64899905  0.23289997     0.36500
C1795       C  0.82451221  0.63583301  0.18338131     0.06100
F1796       F  0.78195577  0.63629290  0.17313676    -0.19700
H1797       H  0.75654562  0.64360024  0.20166151     0.15900
F1798       F  0.80395567  0.65398275  0.25179824    -0.23400
H1799       H  0.82858509  0.64578426  0.22316444     0.17700
C1800       C  0.82625125  0.64516782  0.16417022     0.25700
C1801       C  0.84104321  0.63847541  0.15012551    -0.12000
C1802       C  0.85423681  0.62235037  0.15499212    -0.26000
C1803       C  0.85319490  0.61395958  0.17464005     0.36600
C1804       C  0.83856336  0.62062582  0.18854990    -0.27600
F1805       F  0.81366031  0.66068867  0.15898123    -0.19800
H1806       H  0.84164252  0.64532465  0.13520607     0.15900
F1807       F  0.86627743  0.59906727  0.18043661    -0.23500
H1808       H  0.83780628  0.61337311  0.20327588     0.17800
C1809       C  0.83031162  0.23536424  0.18626735    -0.27500
C1810       C  0.82054125  0.21657950  0.18388114     0.06100
C1811       C  0.82569371  0.20463825  0.16675016     0.25700
C1812       C  0.84000702  0.21161010  0.15237397    -0.12000
C1813       C  0.84939651  0.23068469  0.15458811    -0.25900
C1814       C  0.84453009  0.24230329  0.17202406     0.36500
C1815       C  0.80503882  0.20992365  0.19931433     0.06100
F1816       F  0.81632504  0.18658498  0.16342573    -0.19700
H1817       H  0.84328928  0.20232989  0.13918113     0.15900
F1818       F  0.85383843  0.26029798  0.17575214    -0.23400
H1819       H  0.82705868  0.24472114  0.19942259     0.17700
C1820       C  0.80571806  0.19040724  0.20801317     0.25700
C1821       C  0.79130410  0.18459507  0.22260427    -0.12000
C1822       C  0.77584029  0.19798633  0.22905960    -0.26000
C1823       C  0.77534650  0.21763932  0.22078178     0.36600
C1824       C  0.78980121  0.22350540  0.20612806    -0.27600
F1825       F  0.82066452  0.17708130  0.20288878    -0.19800
H1826       H  0.79215546  0.16942225  0.22885932     0.15900
F1827       F  0.76115044  0.23126887  0.22703241    -0.23500
H1828       H  0.78898714  0.23871505  0.19994383     0.17800
C1829       C  0.93415771  0.40256817  0.09791458    -0.27500
C1830       C  0.92254369  0.41245806  0.11289481     0.06100
C1831       C  0.91057602  0.40070345  0.12609474     0.25700
C1832       C  0.91017315  0.37956084  0.12419136    -0.12000
C1833       C  0.92174981  0.36963613  0.10920595    -0.25900
C1834       C  0.93385276  0.38138892  0.09606953     0.36500
C1835       C  0.92246629  0.43499462  0.11421557     0.06100
F1836       F  0.89951331  0.40961688  0.14107945    -0.19700
H1837       H  0.90091895  0.37092521  0.13466732     0.15900
F1838       F  0.94477476  0.37259716  0.08092454    -0.23400
H1839       H  0.94315496  0.41130878  0.08729173     0.17700
C1840       C  0.94074799  0.44607919  0.11400146     0.25700
C1841       C  0.94036333  0.46732526  0.11430305    -0.12000
C1842       C  0.92179517  0.47799326  0.11492376    -0.26000
C1843       C  0.90350555  0.46684566  0.11552798     0.36600
C1844       C  0.90391625  0.44561276  0.11510718    -0.27600
F1845       F  0.95900969  0.43637835  0.11373897    -0.19800
H1846       H  0.95468384  0.47543327  0.11410492     0.15900
F1847       F  0.88513812  0.47630516  0.11558560    -0.23500
H1848       H  0.88962295  0.43743905  0.11492540     0.17800
C1849       C  0.73380007  0.71525390  0.19684357    -0.27500
C1850       C  0.71452499  0.72448517  0.19732582     0.06100
C1851       C  0.70024234  0.71762285  0.21179447     0.25700
C1852       C  0.70539801  0.70223384  0.22569662    -0.12000
C1853       C  0.72477011  0.69318719  0.22530077    -0.25900
C1854       C  0.73888446  0.69980595  0.21056586     0.36500
C1855       C  0.70935540  0.74104854  0.18262575     0.06100
F1856       F  0.68151010  0.72629204  0.21294249    -0.19700
H1857       H  0.69435927  0.69757376  0.23696462     0.15900
F1858       F  0.75792768  0.69178338  0.20984066    -0.23400
H1859       H  0.74499514  0.72004220  0.18577958     0.17700
C1860       C  0.72173318  0.75843422  0.18040972     0.25700
C1861       C  0.71607441  0.77419968  0.16706441    -0.12000
C1862       C  0.69797228  0.77294577  0.15574904    -0.26000
C1863       C  0.68614027  0.75516281  0.15739480     0.36600
C1864       C  0.69176318  0.73951816  0.17065530    -0.27600
F1865       F  0.73877535  0.76061525  0.19185439    -0.19800
H1866       H  0.72535161  0.78775379  0.16625674     0.15900
F1867       F  0.66899032  0.75287823  0.14613153    -0.23500
H1868       H  0.68224917  0.72613684  0.17164303     0.17800
C1869       C  0.28711755  0.75322353  0.17121517    -0.27500
C1870       C  0.29962163  0.73701797  0.17764722     0.06100
C1871       C  0.31906030  0.73505632  0.16891780     0.25700
C1872       C  0.32602634  0.74935085  0.15481345    -0.12000
C1873       C  0.31382865  0.76595545  0.14882122    -0.25900
C1874       C  0.29405873  0.76750825  0.15696142     0.36500
C1875       C  0.29196995  0.72188947  0.19279190     0.06100
F1876       F  0.33119065  0.71901060  0.17359191    -0.19700
H1877       H  0.34110227  0.74728681  0.14849425     0.15900
F1878       F  0.28166016  0.78317111  0.15179223    -0.23400
H1879       H  0.27199968  0.75504428  0.17753915     0.17700
C1880       C  0.30359874  0.71587672  0.20983021     0.25700
C1881       C  0.29583987  0.70171709  0.22384728    -0.12000
C1882       C  0.27640024  0.69325748  0.22114598    -0.26000
C1883       C  0.26483817  0.69945553  0.20421068     0.36600
C1884       C  0.27254326  0.71346671  0.19028270    -0.27600
F1885       F  0.32214495  0.72421527  0.21335171    -0.19800
H1886       H  0.30494760  0.69751686  0.23687642     0.15900
F1887       F  0.24570988  0.69236221  0.20134970    -0.23500
H1888       H  0.26322121  0.71776256  0.17741771     0.17800
C1889       C  0.52779354  0.86763895  0.10956364    -0.27500
C1890       C  0.51744060  0.85673947  0.12466134     0.06100
C1891       C  0.52872631  0.84715368  0.14005124     0.25700
C1892       C  0.54996860  0.84774359  0.13977098    -0.12000
C1893       C  0.56038201  0.85804209  0.12429292    -0.25900
C1894       C  0.54905902  0.86838809  0.10936110     0.36500
C1895       C  0.49509026  0.85407300  0.12332554     0.06100
F1896       F  0.51920948  0.83708563  0.15529232    -0.19700
H1897       H  0.55829691  0.83997286  0.15163981     0.15900
F1898       F  0.55840261  0.87820950  0.09387057    -0.23400
H1899       H  0.51942511  0.87488445  0.09738807     0.17700
C1900       C  0.48206259  0.87067892  0.11990742     0.25700
C1901       C  0.46117639  0.86759511  0.11730071    -0.12000
C1902       C  0.45285153  0.84792918  0.11800742    -0.26000
C1903       C  0.46593015  0.83135935  0.12176240     0.36600
C1904       C  0.48678643  0.83447692  0.12435518    -0.27600
F1905       F  0.48949349  0.88989199  0.11920423    -0.19800
H1906       H  0.45153000  0.88069400  0.11474775     0.15900
F1907       F  0.45889236  0.81201328  0.12203339    -0.23500
H1908       H  0.49659750  0.82140996  0.12653520     0.17800
C1909       C  0.68698949  0.10608221  0.83183498    -0.27500
C1910       C  0.70574207  0.10326387  0.82202869     0.06100
C1911       C  0.71807014  0.08671095  0.82799162     0.25700
C1912       C  0.71133299  0.07296681  0.84290208    -0.12000
C1913       C  0.69220299  0.07542759  0.85217644    -0.25900
C1914       C  0.68032225  0.09250006  0.84675315     0.36500
C1915       C  0.71240231  0.11792990  0.80601675     0.06100
F1916       F  0.73629337  0.08336684  0.81884994    -0.19700
H1917       H  0.72077069  0.05999807  0.84665999     0.15900
F1918       F  0.66226174  0.09630264  0.85604067    -0.23400
H1919       H  0.67748268  0.11899182  0.82801604     0.17700
C1920       C  0.69970165  0.12297593  0.78945926     0.25700
C1921       C  0.70608635  0.13708149  0.77473887    -0.12000
C1922       C  0.72513926  0.14660211  0.77634821    -0.26000
C1923       C  0.73779849  0.14145945  0.79289504     0.36600
C1924       C  0.73146727  0.12737627  0.80748306    -0.27600
F1925       F  0.68132024  0.11386322  0.78723354    -0.19800
H1926       H  0.69615303  0.14051623  0.76209471     0.15900
F1927       F  0.75664195  0.14971103  0.79470955    -0.23500
H1928       H  0.74148900  0.12392041  0.82007407     0.17800
C1929       C  0.26747003  0.11542403  0.79640237    -0.27500
C1930       C  0.28742715  0.11580491  0.80413345     0.06100
C1931       C  0.30101051  0.13046166  0.79616789     0.25700
C1932       C  0.29441396  0.14474770  0.78161951    -0.12000
C1933       C  0.27434670  0.14442348  0.77426309    -0.25900
C1934       C  0.26103618  0.12939922  0.78168252     0.36500
C1935       C  0.29364921  0.10092635  0.82040897     0.06100
F1936       F  0.32081630  0.13071137  0.80202215    -0.19700
H1937       H  0.30502703  0.15596783  0.77599571     0.15900
F1938       F  0.24148444  0.12857284  0.77505318    -0.23400
H1939       H  0.25658836  0.10449381  0.80209557     0.17700
C1940       C  0.30504589  0.10708797  0.83749703     0.25700
C1941       C  0.31105313  0.09292642  0.85228491    -0.12000
C1942       C  0.30531031  0.07239640  0.85093367    -0.26000
C1943       C  0.29324149  0.06630180  0.83440060     0.36600
C1944       C  0.28761721  0.08036465  0.81929880    -0.27600
F1945       F  0.31002041  0.12689878  0.84024527    -0.19800
H1946       H  0.32029039  0.09803330  0.86491705     0.15900
F1947       F  0.28782740  0.04653350  0.83224479    -0.23500
H1948       H  0.27885126  0.07502976  0.80644089     0.17800
C1949       C  0.52235750  0.97958420  0.89537146    -0.27500
C1950       C  0.51216482  0.99243908  0.88175875     0.06100
C1951       C  0.52361672  0.00451184  0.86843975     0.25700
C1952       C  0.54487574  0.00408094  0.86914993    -0.12000
C1953       C  0.55517003  0.99171177  0.88320950    -0.25900
C1954       C  0.54363475  0.97920646  0.89618777     0.36500
C1955       C  0.48967844  0.99409592  0.88242462     0.06100
F1956       F  0.51423145  0.01677570  0.85477293    -0.19700
H1957       H  0.55327801  0.01363432  0.85876106     0.15900
F1958       F  0.55270435  0.96744432  0.91045818    -0.23400
H1959       H  0.51379067  0.97037691  0.90595790     0.17700
C1960       C  0.47732341  0.97674941  0.88123515     0.25700
C1961       C  0.45616017  0.97853891  0.88286198    -0.12000
C1962       C  0.44689199  0.99762378  0.88579492    -0.26000
C1963       C  0.45935893  0.01498855  0.88691454     0.36600
C1964       C  0.48049575  0.01317095  0.88517399    -0.27600
F1965       F  0.48570684  0.95810690  0.87826965    -0.19800
H1966       H  0.44703154  0.96491773  0.88171854     0.15900
F1967       F  0.45135334  0.03365144  0.89055631    -0.23500
H1968       H  0.48979535  0.02667677  0.88653654     0.17800
C1969       C  0.73332141  0.12577152  0.20098779    -0.27500
C1970       C  0.71317701  0.11863300  0.20092963     0.06100
C1971       C  0.69923129  0.12739783  0.21483592     0.25700
C1972       C  0.70547368  0.14275330  0.22837229    -0.12000
C1973       C  0.72558637  0.14986771  0.22811752    -0.25900
C1974       C  0.73941245  0.14122830  0.21421640     0.36500
C1975       C  0.70715383  0.10185412  0.18667122     0.06100
F1976       F  0.67949404  0.12136030  0.21520720    -0.19700
H1977       H  0.69462536  0.14906643  0.23904702     0.15900
F1978       F  0.75913090  0.14733562  0.21386340    -0.23400
H1979       H  0.74461907  0.11905020  0.19105495     0.17700
C1980       C  0.71397095  0.10140921  0.16630192     0.25700
C1981       C  0.70839943  0.08546446  0.15323333    -0.12000
C1982       C  0.69555722  0.06986207  0.15995574    -0.26000
C1983       C  0.68892455  0.07014855  0.18029652     0.36600
C1984       C  0.69485221  0.08579003  0.19347523    -0.27600
F1985       F  0.72536768  0.11679168  0.15870562    -0.19800
H1986       H  0.71344451  0.08577800  0.13758627     0.15900
F1987       F  0.67682865  0.05513262  0.18756228    -0.23500
H1988       H  0.68986509  0.08522067  0.20912422     0.17800
C1989       C  0.29985284  0.12455779  0.20391051    -0.27500
C1990       C  0.28533475  0.11176617  0.19459537     0.06100
C1991       C  0.26476583  0.11397058  0.20018889     0.25700
C1992       C  0.25892524  0.12883089  0.21425332    -0.12000
C1993       C  0.27334758  0.14169508  0.22335123    -0.25900
C1994       C  0.29394290  0.13940200  0.21815206     0.36500
C1995       C  0.29187331  0.09571409  0.17979265     0.06100
F1996       F  0.25033829  0.10135619  0.19256701    -0.19700
H1997       H  0.24295196  0.13034830  0.21809283     0.15900
F1998       F  0.30827911  0.15140383  0.22684818    -0.23400
H1999       H  0.31582279  0.12313301  0.20002868     0.17700
C2000       C  0.28193491  0.09276467  0.16098585     0.25700
C2001       C  0.28874593  0.07776378  0.14728507    -0.12000
C2002       C  0.30568615  0.06552926  0.15191260    -0.26000
C2003       C  0.31518543  0.06817799  0.17098511     0.36600
C2004       C  0.30840470  0.08308414  0.18457369    -0.27600
F2005       F  0.26619152  0.10492881  0.15542785    -0.19800
H2006       H  0.28121339  0.07622942  0.13274591     0.15900
F2007       F  0.33094990  0.05616940  0.17679785    -0.23500
H2008       H  0.31607621  0.08466517  0.19904448     0.17800
C2009       C  0.52412288  0.02001971  0.07437133    -0.27500
C2010       C  0.51368473  0.01598213  0.09245769     0.06100
C2011       C  0.52477158  0.01260775  0.11035138     0.25700
C2012       C  0.54601120  0.01358712  0.11011341    -0.12000
C2013       C  0.55656121  0.01790892  0.09204555    -0.25900
C2014       C  0.54531877  0.02106788  0.07408952     0.36500
C2015       C  0.49123791  0.01544748  0.09233798     0.06100
F2016       F  0.51509573  0.00795797  0.12794251    -0.19700
H2017       H  0.55416251  0.01072883  0.12409361     0.15900
F2018       F  0.55456655  0.02583811  0.05633367    -0.23400
H2019       H  0.51576891  0.02277707  0.06046045     0.17700
C2020       C  0.47982868  0.02786859  0.10547220     0.25700
C2021       C  0.45859691  0.02802200  0.10429091    -0.12000
C2022       C  0.44843282  0.01590024  0.08994373    -0.26000
C2023       C  0.45992807  0.00319508  0.07707057     0.36600
C2024       C  0.48112395  0.00308962  0.07825146    -0.27600
F2025       F  0.48922315  0.04043961  0.11885972    -0.19800
H2026       H  0.45014778  0.03803966  0.11427667     0.15900
F2027       F  0.45079509  0.99050552  0.06364290    -0.23500
H2028       H  0.48971200  0.99329045  0.06814635     0.17800
C2029       C  0.20964670  0.61744593  0.20417601    -0.27500
C2030       C  0.19853293  0.63121640  0.19195868     0.06100
C2031       C  0.20082916  0.65214545  0.19583566     0.25700
C2032       C  0.21364231  0.65895979  0.21138498    -0.12000
C2033       C  0.22520945  0.64531339  0.22303332    -0.25900
C2034       C  0.22302059  0.62440547  0.21941469     0.36500
C2035       C  0.18479682  0.62390875  0.17516831     0.06100
F2036       F  0.19134550  0.66617288  0.18406550    -0.19700
H2037       H  0.21486079  0.67512725  0.21411444     0.15900
F2038       F  0.23371605  0.61077359  0.23059018    -0.23400
H2039       H  0.20798366  0.60123987  0.20194633     0.17700
C2040       C  0.19092016  0.60826343  0.16186223     0.25700
C2041       C  0.17802208  0.60168857  0.14619707    -0.12000
C2042       C  0.15874449  0.61061130  0.14305446    -0.26000
C2043       C  0.15270899  0.62647745  0.15607908     0.36600
C2044       C  0.16548756  0.63285508  0.17200966    -0.27600
F2045       F  0.20961221  0.59959508  0.16360224    -0.19800
H2046       H  0.18329897  0.58961324  0.13631834     0.15900
F2047       F  0.13414436  0.63530429  0.15398652    -0.23500
H2048       H  0.16006169  0.64465355  0.18213286     0.17800
C2049       C  0.17646823  0.20032895  0.15797517    -0.27500
C2050       C  0.17906525  0.21070054  0.17658777     0.06100
C2051       C  0.16669284  0.22786564  0.18030176     0.25700
C2052       C  0.15304476  0.23492472  0.16549262    -0.12000
C2053       C  0.15078994  0.22478894  0.14682552    -0.25900
C2054       C  0.16235266  0.20711665  0.14337432     0.36500
C2055       C  0.19487016  0.20392643  0.19176172     0.06100
F2056       F  0.16761623  0.23781089  0.19834030    -0.19700
H2057       H  0.14421676  0.24850336  0.16859568     0.15900
F2058       F  0.16094128  0.19712120  0.12539843    -0.23400
H2059       H  0.18586605  0.18728318  0.15437198     0.17700
C2060       C  0.19792875  0.18316841  0.19614621     0.25700
C2061       C  0.21281091  0.17709140  0.21017381    -0.12000
C2062       C  0.22492114  0.19141196  0.22041738    -0.26000
C2063       C  0.22190946  0.21209845  0.21630643     0.36600
C2064       C  0.20720709  0.21824486  0.20199873    -0.27600
F2065       F  0.18613847  0.16869646  0.18737561    -0.19800
H2066       H  0.21476125  0.16104461  0.21327816     0.15900
F2067       F  0.23320505  0.22631848  0.22605434    -0.23500
H2068       H  0.20562757  0.23428978  0.19878996     0.17800
C2069       C  0.11562315  0.44052890  0.04366262    -0.27500
C2070       C  0.11865831  0.42905030  0.06135468     0.06100
C2071       C  0.12084964  0.43923409  0.08000038     0.25700
C2072       C  0.12001138  0.46043618  0.08087484    -0.12000
C2073       C  0.11692434  0.47200986  0.06322395    -0.25900
C2074       C  0.11478820  0.46178646  0.04451265     0.36500
C2075       C  0.11955073  0.40651533  0.06041518     0.06100
F2076       F  0.12325819  0.42864532  0.09750076    -0.19700
H2077       H  0.12143382  0.46775678  0.09552688     0.15900
F2078       F  0.11249140  0.47223448  0.02693121    -0.23400
H2079       H  0.11418453  0.43300932  0.02909632     0.17700
C2080       C  0.10395520  0.39526482  0.05106436     0.25700
C2081       C  0.10446614  0.37399891  0.05133180    -0.12000
C2082       C  0.12044197  0.36355821  0.06101122    -0.26000
C2083       C  0.13634456  0.37483954  0.06979653     0.36600
C2084       C  0.13586199  0.39607891  0.06946334    -0.27600
F2085       F  0.08777916  0.40480766  0.04245725    -0.19800
H2086       H  0.09196436  0.36571595  0.04454961     0.15900
F2087       F  0.15252259  0.36538005  0.07846700    -0.23500
H2088       H  0.14825737  0.40443667  0.07636597     0.17800
C2089       C  0.32385614  0.25161153  0.21284914    -0.27500
C2090       C  0.31826887  0.23518008  0.20024120     0.06100
C2091       C  0.32741783  0.23371725  0.18099091     0.25700
C2092       C  0.34133771  0.24844073  0.17445026    -0.12000
C2093       C  0.34664945  0.26513475  0.18681004    -0.25900
C2094       C  0.33787925  0.26639664  0.20628179     0.36500
C2095       C  0.30306225  0.21962830  0.20716501     0.06100
F2096       F  0.32319314  0.21781661  0.16854649    -0.19700
H2097       H  0.34800850  0.24668433  0.15952571     0.15900
F2098       F  0.34211695  0.28232201  0.21865925    -0.23400
H2099       H  0.31696734  0.25328708  0.22769192     0.17700
C2100       C  0.30472261  0.21057224  0.22642431     0.25700
C2101       C  0.29048765  0.19610343  0.23281782    -0.12000
C2102       C  0.27414888  0.19016629  0.22029710    -0.26000
C2103       C  0.27250506  0.19900439  0.20095366     0.36600
C2104       C  0.28681689  0.21354898  0.19449588    -0.27600
F2105       F  0.32034754  0.21542086  0.23900298    -0.19800
H2106       H  0.29209333  0.18964047  0.24784574     0.15900
F2107       F  0.25723609  0.19348846  0.18823838    -0.23500
H2108       H  0.28504127  0.22028241  0.17961894     0.17800
C2109       C  0.30617021  0.21362445  0.76679024    -0.27500
C2110       C  0.30376676  0.22488822  0.78468294     0.06100
C2111       C  0.28733715  0.22027475  0.79765912     0.25700
C2112       C  0.27355071  0.20477075  0.79263863    -0.12000
C2113       C  0.27597507  0.19345164  0.77470019    -0.25900
C2114       C  0.29255450  0.19806403  0.76185005     0.36500
C2115       C  0.31897101  0.24075033  0.79011452     0.06100
F2116       F  0.28432753  0.23113088  0.81493951    -0.19700
H2117       H  0.26087194  0.20179479  0.80267311     0.15900
F2118       F  0.29521114  0.18801980  0.74403639    -0.23400
H2119       H  0.31873081  0.21683276  0.75664080     0.17700
C2120       C  0.33004578  0.23908843  0.80821426     0.25700
C2121       C  0.34423185  0.25392236  0.81356744    -0.12000
C2122       C  0.34770192  0.27100825  0.80118342    -0.26000
C2123       C  0.33709722  0.27240215  0.78265517     0.36600
C2124       C  0.32293038  0.25729703  0.77715229    -0.27600
F2125       F  0.32729128  0.22293281  0.82068631    -0.19800
H2126       H  0.35242557  0.25206532  0.82770128     0.15900
F2127       F  0.33966138  0.28871225  0.77036867    -0.23500
H2128       H  0.31465438  0.25876557  0.76300930     0.17800
C2129       C  0.37761804  0.36592787  0.97261844    -0.27500
C2130       C  0.37664178  0.34741576  0.98306063     0.06100
C2131       C  0.37535145  0.32922561  0.97199196     0.25700
C2132       C  0.37573282  0.32957731  0.95082073    -0.12000
C2133       C  0.37729558  0.34806162  0.94024174    -0.25900
C2134       C  0.37782474  0.36633383  0.95142227     0.36500
C2135       C  0.37756788  0.34710913  0.00545907     0.06100
F2136       F  0.37457949  0.31104282  0.98165106    -0.19700
H2137       H  0.37540230  0.31522728  0.94280974     0.15900
F2138       F  0.37829650  0.38463912  0.94203103    -0.23400
H2139       H  0.37821690  0.38012549  0.98093902     0.17700
C2140       C  0.39364978  0.35666597  0.01576409     0.25700
C2141       C  0.39478887  0.35577592  0.03690047    -0.12000
C2142       C  0.38002073  0.34523504  0.04811733    -0.26000
C2143       C  0.36377372  0.33588938  0.03778372     0.36600
C2144       C  0.36260656  0.33685804  0.01663390    -0.27600
F2145       F  0.40865513  0.36622982  0.00534232    -0.19800
H2146       H  0.40756614  0.36290175  0.04444439     0.15900
F2147       F  0.34877402  0.32620562  0.04807306    -0.23500
H2148       H  0.34995277  0.32964968  0.00894132     0.17800
C2149       C  0.19352484  0.25103832  0.31123145    -0.27500
C2150       C  0.20986507  0.23792404  0.31508186     0.06100
C2151       C  0.22112037  0.24049660  0.33315473     0.25700
C2152       C  0.21544411  0.25546611  0.34743201    -0.12000
C2153       C  0.19854479  0.26810512  0.34381956    -0.25900
C2154       C  0.18800402  0.26601004  0.32526079     0.36500
C2155       C  0.21529056  0.22218003  0.29972489     0.06100
F2156       F  0.23707493  0.22803692  0.33732108    -0.19700
H2157       H  0.22371787  0.25664021  0.36160201     0.15900
F2158       F  0.17225880  0.27854508  0.32058214    -0.23400
H2159       H  0.18502601  0.24972570  0.29719687     0.17700
C2160       C  0.20112084  0.20733196  0.29348825     0.25700
C2161       C  0.20627059  0.19306433  0.27840820    -0.12000
C2162       C  0.22543420  0.19368249  0.26901195    -0.26000
C2163       C  0.23944521  0.20870694  0.27514284     0.36600
C2164       C  0.23443198  0.22267031  0.29037355    -0.27600
F2165       F  0.18246802  0.20638918  0.30229576    -0.19800
H2166       H  0.19539812  0.18145796  0.27417845     0.15900
F2167       F  0.25828801  0.20956006  0.26673750    -0.23500
H2168       H  0.24547087  0.23407033  0.29474538     0.17800
C2169       C  0.81031833  0.23913053  0.33316593    -0.27500
C2170       C  0.79385167  0.24378879  0.32050101     0.06100
C2171       C  0.78342470  0.26231324  0.32348127     0.25700
C2172       C  0.78984545  0.27609621  0.33854413    -0.12000
C2173       C  0.80668907  0.27159125  0.35093923    -0.25900
C2174       C  0.81657028  0.25267356  0.34829649     0.36500
C2175       C  0.78712185  0.22863275  0.30508946     0.06100
F2176       F  0.76740359  0.26730335  0.31145814    -0.19700
H2177       H  0.78201438  0.29050764  0.34012543     0.15900
F2178       F  0.83211293  0.24696251  0.36061522    -0.23400
H2179       H  0.81818748  0.22473357  0.33153756     0.17700
C2180       C  0.80034812  0.22166966  0.28968080     0.25700
C2181       C  0.79401635  0.20658369  0.27591519    -0.12000
C2182       C  0.77459296  0.19788404  0.27759715    -0.26000
C2183       C  0.76147864  0.20483657  0.29311321     0.36600
C2184       C  0.76766340  0.22009170  0.30655957    -0.27600
F2185       F  0.81926889  0.22968634  0.28778366    -0.19800
H2186       H  0.80427331  0.20166509  0.26400471     0.15900
F2187       F  0.74243561  0.19709611  0.29506694    -0.23500
H2188       H  0.75732453  0.22503877  0.31840118     0.17800
C2189       C  0.02299551  0.31770120  0.38496848    -0.27500
C2190       C  0.01321570  0.33660182  0.38334359     0.06100
C2191       C  0.02501548  0.35429871  0.38183570     0.25700
C2192       C  0.04622879  0.35310403  0.38259049    -0.12000
C2193       C  0.05608319  0.33426863  0.38483237    -0.25900
C2194       C  0.04424136  0.31647502  0.38575110     0.36500
C2195       C  0.99079338  0.33789777  0.38490648     0.06100
F2196       F  0.01599787  0.37275541  0.37974042    -0.19700
H2197       H  0.05495372  0.36699637  0.38153073     0.15900
F2198       F  0.05301564  0.29801570  0.38856446    -0.23400
H2199       H  0.01412411  0.30393055  0.38645958     0.17700
C2200       C  0.97811500  0.32641124  0.37214150     0.25700
C2201       C  0.95697224  0.32710562  0.37464298    -0.12000
C2202       C  0.94814027  0.33924153  0.38989786    -0.26000
C2203       C  0.96092033  0.35074499  0.40262225     0.36600
C2204       C  0.98200689  0.35008036  0.40005706    -0.27600
F2205       F  0.98616512  0.31472829  0.35713811    -0.19800
H2206       H  0.94750324  0.31822541  0.36453518     0.15900
F2207       F  0.95321372  0.36192450  0.41815261    -0.23500
H2208       H  0.99157555  0.35869746  0.41031680     0.17800
C2209       C  0.33387351  0.13942475  0.32303433    -0.27500
C2210       C  0.31600141  0.12809863  0.31933965     0.06100
C2211       C  0.31199983  0.11130804  0.33187816     0.25700
C2212       C  0.32570344  0.10572033  0.34717386    -0.12000
C2213       C  0.34378911  0.11668105  0.35060668    -0.25900
C2214       C  0.34759019  0.13386288  0.33854066     0.36500
C2215       C  0.30144922  0.13387130  0.30272100     0.06100
F2216       F  0.29463662  0.10039350  0.32958463    -0.19700
H2217       H  0.32213228  0.09258864  0.35637463     0.15900
F2218       F  0.36498621  0.14466042  0.34102124    -0.23400
H2219       H  0.33749004  0.15234803  0.31356643     0.17700
C2220       C  0.29491218  0.15411351  0.30043069     0.25700
C2221       C  0.28077979  0.15929302  0.28537110    -0.12000
C2222       C  0.27276009  0.14454123  0.27213933    -0.26000
C2223       C  0.27931815  0.12434074  0.27415622     0.36600
C2224       C  0.29350867  0.11908200  0.28931317    -0.27600
F2225       F  0.30168916  0.16885852  0.31315519    -0.19800
H2226       H  0.27597650  0.17498840  0.28403484     0.15900
F2227       F  0.27187695  0.10972579  0.26166551    -0.23500
H2228       H  0.29838421  0.10340684  0.29051794     0.17800
C2229       C  0.32865118  0.73605261  0.31115077    -0.27500
C2230       C  0.31761300  0.71812554  0.31443260     0.06100
C2231       C  0.32172756  0.70677459  0.33214122     0.25700
C2232       C  0.33630032  0.71346591  0.34629455    -0.12000
C2233       C  0.34694167  0.73168040  0.34321780    -0.25900
C2234       C  0.34312336  0.74276692  0.32528482     0.36500
C2235       C  0.30251586  0.71096812  0.29897862     0.06100
F2236       F  0.31112172  0.68957165  0.33613763    -0.19700
H2237       H  0.33870301  0.70479401  0.36004264     0.15900
F2238       F  0.35358154  0.76005584  0.32124509    -0.23400
H2239       H  0.32620154  0.74481142  0.29746165     0.17700
C2240       C  0.28705752  0.72382383  0.29132286     0.25700
C2241       C  0.27315016  0.71667795  0.27667895    -0.12000
C2242       C  0.27459991  0.69672554  0.26921391    -0.26000
C2243       C  0.29007799  0.68399101  0.27686301     0.36600
C2244       C  0.30379814  0.69104692  0.29148358    -0.27600
F2245       F  0.28506263  0.74310415  0.29839211    -0.19800
H2246       H  0.26124205  0.72667817  0.27123376     0.15900
F2247       F  0.29171973  0.66445955  0.27042117    -0.23500
H2248       H  0.31560363  0.68089367  0.29688919     0.17800
C2249       C  0.39236413  0.90121192  0.43833647    -0.27500
C2250       C  0.37819657  0.91176969  0.42638965     0.06100
C2251       C  0.36353752  0.90080907  0.41541365     0.25700
C2252       C  0.36341582  0.87961022  0.41606402    -0.12000
C2253       C  0.37791134  0.86894875  0.42760551    -0.25900
C2254       C  0.39229593  0.88001287  0.43898706     0.36500
C2255       C  0.37944805  0.93411955  0.42477821     0.06100
F2256       F  0.34932012  0.91060525  0.40409580    -0.19700
H2257       H  0.35201305  0.87152437  0.40738053     0.15900
F2258       F  0.40700907  0.87050760  0.44988388    -0.23400
H2259       H  0.40396599  0.90940684  0.44666812     0.17700
C2260       C  0.38009914  0.94631612  0.44226366     0.25700
C2261       C  0.38234862  0.96731905  0.44056885    -0.12000
C2262       C  0.38404569  0.97658350  0.42143585    -0.26000
C2263       C  0.38325100  0.96431371  0.40389765     0.36600
C2264       C  0.38093052  0.94329509  0.40563307    -0.27600
F2265       F  0.37832872  0.93793527  0.46098780    -0.19800
H2266       H  0.38261237  0.97633160  0.45432094     0.15900
F2267       F  0.38552326  0.97237190  0.38510202    -0.23500
H2268       H  0.38083662  0.93407767  0.39199251     0.17800
C2269       C  0.29424533  0.61497823  0.22890567    -0.27500
C2270       C  0.30324652  0.61623714  0.20967918     0.06100
C2271       C  0.29717920  0.63206678  0.19656655     0.25700
C2272       C  0.28252749  0.64643310  0.20279165    -0.12000
C2273       C  0.27344408  0.64503542  0.22204121    -0.25900
C2274       C  0.27952114  0.62910006  0.23502106     0.36500
C2275       C  0.31847070  0.60063718  0.20329811     0.06100
F2276       F  0.30577567  0.63388496  0.17792791    -0.19700
H2277       H  0.27830240  0.65860785  0.19259830     0.15900
F2278       F  0.27151707  0.62742251  0.25393041    -0.23400
H2279       H  0.29854254  0.60288834  0.23919429     0.17700
C2280       C  0.33637876  0.59706751  0.21458576     0.25700
C2281       C  0.35065078  0.58243303  0.20812283    -0.12000
C2282       C  0.34728468  0.57111804  0.19033553    -0.26000
C2283       C  0.32889283  0.57409124  0.17966400     0.36600
C2284       C  0.31478927  0.58875452  0.18601851    -0.27600
F2285       F  0.34044422  0.60830678  0.23138827    -0.19800
H2286       H  0.36469147  0.58054863  0.21653889     0.15900
F2287       F  0.32446799  0.56272318  0.16303571    -0.23500
H2288       H  0.30086838  0.59080697  0.17743462     0.17800
C2289       C  0.33515907  0.60872883  0.80153006    -0.27500
C2290       C  0.31856057  0.60095737  0.79054804     0.06100
C2291       C  0.31912961  0.58024607  0.78471791     0.25700
C2292       C  0.33552443  0.56769432  0.79046012    -0.12000
C2293       C  0.35145949  0.57538784  0.80237224    -0.25900
C2294       C  0.35123405  0.59615219  0.80756542     0.36500
C2295       C  0.30115152  0.61471388  0.78501885     0.06100
F2296       F  0.30345473  0.57182766  0.77427789    -0.19700
H2297       H  0.33526166  0.55173333  0.78644619     0.15900
F2298       F  0.36664065  0.60437406  0.81856511    -0.23400
H2299       H  0.33574332  0.62467522  0.80553092     0.17700
C2300       C  0.29344130  0.62937694  0.79879965     0.25700
C2301       C  0.27830633  0.64326273  0.79277581    -0.12000
C2302       C  0.27015359  0.64251768  0.77312007    -0.26000
C2303       C  0.27727854  0.62743541  0.75965356     0.36600
C2304       C  0.29266087  0.61391760  0.76547001    -0.27600
F2305       F  0.30043861  0.63027583  0.81815954    -0.19800
H2306       H  0.27303529  0.65466925  0.80342387     0.15900
F2307       F  0.26989848  0.62624833  0.74046903    -0.23500
H2308       H  0.29839661  0.60324497  0.75432571     0.17800
C2309       C  0.44006692  0.52672595  0.97500626    -0.27500
C2310       C  0.42955467  0.54230506  0.98509639     0.06100
C2311       C  0.41990392  0.55754102  0.97370823     0.25700
C2312       C  0.42043245  0.55687908  0.95250314    -0.12000
C2313       C  0.43057454  0.54102887  0.94229036    -0.25900
C2314       C  0.44053311  0.52596351  0.95381841     0.36500
C2315       C  0.42845357  0.54221914  0.00748669     0.06100
F2316       F  0.41014732  0.57314269  0.98310322    -0.19700
H2317       H  0.41287683  0.56881478  0.94407001     0.15900
F2318       F  0.44991641  0.50994987  0.94478866    -0.23400
H2319       H  0.44747534  0.51479546  0.98360049     0.17700
C2320       C  0.40959689  0.54108392  0.01747226     0.25700
C2321       C  0.40882226  0.54000155  0.03864640    -0.12000
C2322       C  0.42681919  0.53997775  0.05021459    -0.26000
C2323       C  0.44567702  0.54144970  0.04013586     0.36600
C2324       C  0.44642113  0.54242889  0.01896349    -0.27600
F2325       F  0.39198754  0.54025307  0.00671082    -0.19800
H2326       H  0.39411572  0.53865995  0.04593681     0.15900
F2327       F  0.46339973  0.54237092  0.05066815    -0.23500
H2328       H  0.46106811  0.54342604  0.01146868     0.17800
C2329       C  0.68334286  0.25193726  0.18845280    -0.27500
C2330       C  0.68108303  0.24157075  0.20690912     0.06100
C2331       C  0.66374005  0.24580324  0.21889362     0.25700
C2332       C  0.64877169  0.25957554  0.21214957    -0.12000
C2333       C  0.65071455  0.26931147  0.19329928    -0.25900
C2334       C  0.66843366  0.26564098  0.18172598     0.36500
C2335       C  0.69696960  0.22668457  0.21367822     0.06100
F2336       F  0.66081664  0.23594530  0.23672629    -0.19700
H2337       H  0.63524709  0.26195798  0.22126276     0.15900
F2338       F  0.67141929  0.27541181  0.16385053    -0.23400
H2339       H  0.69675013  0.24942989  0.17919650     0.17700
C2340       C  0.70375779  0.21072560  0.20096260     0.25700
C2341       C  0.71847172  0.19670191  0.20781847    -0.12000
C2342       C  0.72693151  0.19853923  0.22731096    -0.26000
C2343       C  0.72020946  0.21458616  0.23987870     0.36600
C2344       C  0.70550162  0.22842346  0.23311655    -0.27600
F2345       F  0.69570282  0.20831962  0.18214649    -0.19800
H2346       H  0.72316420  0.18435887  0.19797306     0.15900
F2347       F  0.72763134  0.21669283  0.25898135    -0.23500
H2348       H  0.70076768  0.24060917  0.24314316     0.17800
C2349       C  0.70903951  0.21213134  0.80295970    -0.27500
C2350       C  0.69715660  0.22356522  0.78917397     0.06100
C2351       C  0.70060497  0.22073626  0.76828074     0.25700
C2352       C  0.71511584  0.20666933  0.76147891    -0.12000
C2353       C  0.72644223  0.19479166  0.77515942    -0.25900
C2354       C  0.72348862  0.19783191  0.79605512     0.36500
C2355       C  0.68051225  0.23748300  0.79648754     0.06100
F2356       F  0.68935752  0.23093740  0.75432463    -0.19700
H2357       H  0.71738589  0.20488585  0.74532511     0.15900
F2358       F  0.73460833  0.18714719  0.80972871    -0.23400
H2359       H  0.70706140  0.21421242  0.81914526     0.17700
C2360       C  0.66653048  0.23083440  0.81118451     0.25700
C2361       C  0.65053054  0.24341486  0.81752920    -0.12000
C2362       C  0.64783724  0.26310923  0.80956161    -0.26000
C2363       C  0.66168179  0.26979933  0.79468122     0.36600
C2364       C  0.67783298  0.25713067  0.78829861    -0.27600
F2365       F  0.66788919  0.21183501  0.81904625    -0.19800
H2366       H  0.64002833  0.23746373  0.82867084     0.15900
F2367       F  0.66004165  0.28872460  0.78672487    -0.23500
H2368       H  0.68842355  0.26280325  0.77707410     0.17800
C2369       C  0.58250148  0.29172059  0.98035766    -0.27500
C2370       C  0.56425681  0.29627207  0.99055438     0.06100
C2371       C  0.54677165  0.30080822  0.97906532     0.25700
C2372       C  0.54770009  0.30098454  0.95787193    -0.12000
C2373       C  0.56596201  0.29646232  0.94768617    -0.25900
C2374       C  0.58337278  0.29162614  0.95917903     0.36500
C2375       C  0.56377849  0.29659480  0.01308831     0.06100
F2376       F  0.52870290  0.30478391  0.98827692    -0.19700
H2377       H  0.53403209  0.30457499  0.94940084     0.15900
F2378       F  0.60150765  0.28770585  0.95010924    -0.23400
H2379       H  0.59630180  0.28865521  0.98882357     0.17700
C2380       C  0.57303785  0.28097982  0.02439062     0.25700
C2381       C  0.57339758  0.28190261  0.04554821    -0.12000
C2382       C  0.56426900  0.29817332  0.05591289    -0.26000
C2383       C  0.55466213  0.31364175  0.04469097     0.36600
C2384       C  0.55458855  0.31288507  0.02347838    -0.27600
F2385       F  0.58150533  0.26464094  0.01501702    -0.19800
H2386       H  0.58068537  0.26971833  0.05387332     0.15900
F2387       F  0.54615187  0.32994554  0.05408903    -0.23500
H2388       H  0.54775302  0.32532378  0.01515317     0.17800
C2389       C  0.34042328  0.12090421  0.69408185    -0.27500
C2390       C  0.32163126  0.12604690  0.68530962     0.06100
C2391       C  0.32023243  0.12683474  0.66393767     0.25700
C2392       C  0.33721708  0.12217873  0.65173871    -0.12000
C2393       C  0.35581788  0.11652779  0.66061324    -0.25900
C2394       C  0.35728556  0.11615650  0.68193818     0.36500
C2395       C  0.30404386  0.13166291  0.69860582     0.06100
F2396       F  0.30223217  0.13132577  0.65485469    -0.19700
H2397       H  0.33558754  0.12209900  0.63538050     0.15900
F2398       F  0.37511988  0.11109833  0.69106367    -0.23400
H2399       H  0.34208624  0.12066788  0.71043684     0.17700
C2400       C  0.29778912  0.11924955  0.71491332     0.25700
C2401       C  0.28243385  0.12581495  0.72835019    -0.12000
C2402       C  0.27299926  0.14481652  0.72573642    -0.26000
C2403       C  0.27906405  0.15695781  0.70916722     0.36600
C2404       C  0.29425977  0.15038965  0.69580281    -0.27600
F2405       F  0.30654859  0.10079352  0.71785801    -0.19800
H2406       H  0.27809995  0.11617025  0.74091043     0.15900
F2407       F  0.27094729  0.17572617  0.70639415    -0.23500
H2408       H  0.29897802  0.16038595  0.68364790     0.17800
C2409       C  0.33707159  0.72835880  0.69520971    -0.27500
C2410       C  0.32314182  0.71402660  0.68784818     0.06100
C2411       C  0.32589163  0.70638688  0.66799316     0.25700
C2412       C  0.34187767  0.71351068  0.65567675    -0.12000
C2413       C  0.35543632  0.72837293  0.66287155    -0.25900
C2414       C  0.35310144  0.73530423  0.68306470     0.36500
C2415       C  0.30611463  0.70704225  0.70119223     0.06100
F2416       F  0.31268072  0.69259587  0.66021706    -0.19700
H2417       H  0.34322835  0.70788788  0.64027894     0.15900
F2418       F  0.36651487  0.74859341  0.69134932    -0.23400
H2419       H  0.33564291  0.73407828  0.71057516     0.17700
C2420       C  0.30341182  0.68629212  0.70534409     0.25700
C2421       C  0.28799152  0.67993069  0.71853249    -0.12000
C2422       C  0.27460328  0.69395988  0.72764627    -0.26000
C2423       C  0.27729250  0.71472953  0.72370770     0.36600
C2424       C  0.29302257  0.72119502  0.71070726    -0.27600
F2425       F  0.31614300  0.67217939  0.69722300    -0.19800
H2426       H  0.28663075  0.66390022  0.72187834     0.15900
F2427       F  0.26500356  0.72870549  0.73266280    -0.23500
H2428       H  0.29494854  0.73729209  0.70796509     0.17800
C2429       C  0.42802119  0.89948078  0.64983881    -0.27500
C2430       C  0.43665964  0.91109917  0.63421442     0.06100
C2431       C  0.44536832  0.90105830  0.61746431     0.25700
C2432       C  0.44511273  0.87988701  0.61625379    -0.12000
C2433       C  0.43610586  0.86817981  0.63162900    -0.25900
C2434       C  0.42775366  0.87823277  0.64864172     0.36500
C2435       C  0.43633987  0.93363313  0.63510418     0.06100
F2436       F  0.45343598  0.91174830  0.60181810    -0.19700
H2437       H  0.45146101  0.87274084  0.60286678     0.15900
F2438       F  0.41960877  0.86763767  0.66429180    -0.23400
H2439       H  0.42155102  0.90688477  0.66305216     0.17700
C2440       C  0.41810415  0.94434654  0.63865589     0.25700
C2441       C  0.41775620  0.96558325  0.63758188    -0.12000
C2442       C  0.43549398  0.97646111  0.63277138    -0.26000
C2443       C  0.45386089  0.96577869  0.63004268     0.36600
C2444       C  0.45424165  0.94460444  0.63128977    -0.27600
F2445       F  0.40042699  0.93427802  0.64210620    -0.19800
H2446       H  0.40340982  0.97345499  0.63968400     0.15900
F2447       F  0.47150390  0.97577775  0.62628087    -0.23500
H2448       H  0.46854649  0.93670300  0.62899165     0.17800
C2449       C  0.23343318  0.22672736  0.70591083    -0.27500
C2450       C  0.21395206  0.22588079  0.69721390     0.06100
C2451       C  0.20072656  0.21013649  0.70333797     0.25700
C2452       C  0.20692617  0.19571621  0.71787635    -0.12000
C2453       C  0.22631656  0.19683625  0.72680659    -0.25900
C2454       C  0.23952986  0.21251603  0.72055319     0.36500
C2455       C  0.20744244  0.24172685  0.68221269     0.06100
F2456       F  0.18194263  0.20844346  0.69493116    -0.19700
H2457       H  0.19655127  0.18372373  0.72217912     0.15900
F2458       F  0.25856786  0.21393674  0.72843787    -0.23400
H2459       H  0.24390056  0.23862988  0.70152785     0.17700
C2460       C  0.18982883  0.25339258  0.68564122     0.25700
C2461       C  0.18351562  0.26797930  0.67148227    -0.12000
C2462       C  0.19454993  0.27150323  0.65347071    -0.26000
C2463       C  0.21258381  0.26029406  0.65029486     0.36600
C2464       C  0.21895890  0.24563417  0.66457585    -0.27600
F2465       F  0.17883076  0.25090622  0.70290138    -0.19800
H2466       H  0.16977131  0.27653667  0.67463712     0.15900
F2467       F  0.22351360  0.26275458  0.63300536    -0.23500
H2468       H  0.23267050  0.23694543  0.66161966     0.17800
C2469       C  0.80810147  0.25154108  0.68548122    -0.27500
C2470       C  0.79284252  0.23756307  0.68018335     0.06100
C2471       C  0.78334481  0.23974406  0.66101154     0.25700
C2472       C  0.78923171  0.25528846  0.64761224    -0.12000
C2473       C  0.80500100  0.26869870  0.65274023    -0.25900
C2474       C  0.81428381  0.26669929  0.67193757     0.36500
C2475       C  0.78659088  0.22130924  0.69492389     0.06100
F2476       F  0.76894348  0.22636386  0.65478127    -0.19700
H2477       H  0.78208008  0.25625560  0.63283283     0.15900
F2478       F  0.82934710  0.27954150  0.67774921    -0.23400
H2479       H  0.81526169  0.25086571  0.70026334     0.17700
C2480       C  0.80098346  0.21059455  0.70688399     0.25700
C2481       C  0.79459945  0.19622875  0.72134873    -0.12000
C2482       C  0.77386017  0.19197527  0.72387240    -0.26000
C2483       C  0.75959522  0.20219862  0.71164940     0.36600
C2484       C  0.76585750  0.21681213  0.69762333    -0.27600
F2485       F  0.82124471  0.21375680  0.70445400    -0.19800
H2486       H  0.80581045  0.18843555  0.73055851     0.15900
F2487       F  0.73941182  0.19827871  0.71357419    -0.23500
H2488       H  0.75430979  0.22495668  0.68918148     0.17800
C2489       C  0.97658373  0.28863899  0.58660247    -0.27500
C2490       C  0.98778677  0.30304576  0.57559588     0.06100
C2491       C  0.97728050  0.31817453  0.56475939     0.25700
C2492       C  0.95604506  0.31919961  0.56550542    -0.12000
C2493       C  0.94483157  0.30525010  0.57710311    -0.25900
C2494       C  0.95532105  0.28968544  0.58740011     0.36500
C2495       C  0.01036622  0.30287584  0.57624527     0.06100
F2496       F  0.98756698  0.33257107  0.55421307    -0.19700
H2497       H  0.94844441  0.33140524  0.55751442     0.15900
F2498       F  0.94511159  0.27531212  0.59802944    -0.23400
H2499       H  0.98435281  0.27660306  0.59471424     0.17700
C2500       C  0.02069437  0.30233085  0.59492250     0.25700
C2501       C  0.04191730  0.30357126  0.59553943    -0.12000
C2502       C  0.05334471  0.30538762  0.57758850    -0.26000
C2503       C  0.04298856  0.30530887  0.55883215     0.36600
C2504       C  0.02173096  0.30410107  0.55824698    -0.27600
F2505       F  0.01022775  0.30149967  0.61266797    -0.19800
H2506       H  0.04931280  0.30371679  0.61021178     0.15900
F2507       F  0.05327326  0.30610656  0.54100022    -0.23500
H2508       H  0.01409935  0.30415204  0.54367178     0.17800
C2509       C  0.67530641  0.14105203  0.33776893    -0.27500
C2510       C  0.68325279  0.12735751  0.32322440     0.06100
C2511       C  0.67723383  0.10687439  0.32450244     0.25700
C2512       C  0.66396111  0.10039092  0.33982187    -0.12000
C2513       C  0.65598597  0.11400923  0.35435536    -0.25900
C2514       C  0.66171900  0.13456717  0.35299366     0.36500
C2515       C  0.69758747  0.13441667  0.30680676     0.06100
F2516       F  0.68364942  0.09305752  0.31057316    -0.19700
H2517       H  0.65964809  0.08454709  0.33994805     0.15900
F2518       F  0.65468955  0.14835415  0.36664022    -0.23400
H2519       H  0.67985781  0.15684171  0.33759509     0.17700
C2520       C  0.69431244  0.15291332  0.29653306     0.25700
C2521       C  0.70797058  0.15955523  0.28159628    -0.12000
C2522       C  0.72515920  0.14794280  0.27615028    -0.26000
C2523       C  0.72816548  0.12915855  0.28583873     0.36600
C2524       C  0.71468448  0.12263392  0.30110173    -0.27600
F2525       F  0.67774379  0.16456226  0.30067882    -0.19800
H2526       H  0.70528475  0.17412548  0.27443890     0.15900
F2527       F  0.74399055  0.11700411  0.28049808    -0.23500
H2528       H  0.71788326  0.10842156  0.30870114     0.17800
C2529       C  0.68025939  0.72851673  0.33084250    -0.27500
C2530       C  0.67587152  0.71141253  0.31890357     0.06100
C2531       C  0.65772686  0.70065295  0.32303492     0.25700
C2532       C  0.64407357  0.70752148  0.33813687    -0.12000
C2533       C  0.64818859  0.72518194  0.34951255    -0.25900
C2534       C  0.66680631  0.73528977  0.34588638     0.36500
C2535       C  0.69068266  0.70495776  0.30270379     0.06100
F2536       F  0.65282186  0.68388983  0.31207168    -0.19700
H2537       H  0.63002057  0.69930358  0.34053850     0.15900
F2538       F  0.67245633  0.75159512  0.35714313    -0.23400
H2539       H  0.69441175  0.73664697  0.32868750     0.17700
C2540       C  0.69949498  0.71929213  0.28935677     0.25700
C2541       C  0.71468196  0.71346913  0.27542569    -0.12000
C2542       C  0.72131137  0.69324681  0.27435944    -0.26000
C2543       C  0.71215071  0.67881388  0.28722103     0.36600
C2544       C  0.69710407  0.68462366  0.30122089    -0.27600
F2545       F  0.69327551  0.73896237  0.28963794    -0.19800
H2546       H  0.72131345  0.72475444  0.26549643     0.15900
F2547       F  0.71794529  0.65902472  0.28635617    -0.23500
H2548       H  0.69087087  0.67325866  0.31130817     0.17800
C2549       C  0.60100191  0.89839057  0.40825259    -0.27500
C2550       C  0.58475830  0.90950363  0.39996832     0.06100
C2551       C  0.56804721  0.89903888  0.39174096     0.25700
C2552       C  0.56756736  0.87779018  0.39201558    -0.12000
C2553       C  0.58383308  0.86662959  0.40026077    -0.25900
C2554       C  0.60056722  0.87713729  0.40847569     0.36500
C2555       C  0.58537017  0.93198404  0.39995911     0.06100
F2556       F  0.55244725  0.90937212  0.38299168    -0.19700
H2557       H  0.55462458  0.87002926  0.38542832     0.15900
F2558       F  0.61617261  0.86692481  0.41734141    -0.23400
H2559       H  0.61391701  0.90623043  0.41481067     0.17700
C2560       C  0.57025035  0.94337409  0.40989971     0.25700
C2561       C  0.57103592  0.96460506  0.40986134    -0.12000
C2562       C  0.58689100  0.97492130  0.39990295    -0.26000
C2563       C  0.60197452  0.96340519  0.38984427     0.36600
C2564       C  0.60123952  0.94215790  0.39004522    -0.27600
F2565       F  0.55500521  0.93394275  0.42008793    -0.19800
H2566       H  0.55934716  0.97293478  0.41795448     0.15900
F2567       F  0.61712259  0.97254553  0.37929246    -0.23500
H2568       H  0.61293217  0.93358923  0.38217057     0.17800
C2569       C  0.21862818  0.58686670  0.32177484    -0.27500
C2570       C  0.20658161  0.60400213  0.31703479     0.06100
C2571       C  0.18834960  0.60691379  0.32781517     0.25700
C2572       C  0.18220484  0.59294572  0.34258472    -0.12000
C2573       C  0.19392548  0.57553289  0.34711371    -0.25900
C2574       C  0.21242146  0.57277967  0.33663482     0.36500
C2575       C  0.21309457  0.61896522  0.30117991     0.06100
F2576       F  0.17660668  0.62356563  0.32441331    -0.19700
H2577       H  0.16814113  0.59596520  0.35060337     0.15900
F2578       F  0.22414540  0.55616669  0.34016059    -0.23400
H2579       H  0.23271797  0.58416563  0.31365885     0.17700
C2580       C  0.23279035  0.62730231  0.30147553     0.25700
C2581       C  0.23864574  0.64162036  0.28691084    -0.12000
C2582       C  0.22509160  0.64810143  0.27166752    -0.26000
C2583       C  0.20542205  0.63978834  0.27121388     0.36600
C2584       C  0.19948877  0.62543025  0.28588044    -0.27600
F2585       F  0.24626539  0.62200581  0.31617268    -0.19800
H2586       H  0.25395202  0.64770121  0.28748659     0.15900
F2587       F  0.19195062  0.64561772  0.25672980    -0.23500
H2588       H  0.18426141  0.61919663  0.28518411     0.17800
C2589       C  0.81197373  0.60925307  0.33579743    -0.27500
C2590       C  0.79357732  0.60534041  0.32569714     0.06100
C2591       C  0.78248918  0.58784504  0.33114364     0.25700
C2592       C  0.78986535  0.57454585  0.34617475    -0.12000
C2593       C  0.80855007  0.57824264  0.35591322    -0.25900
C2594       C  0.81937750  0.59600858  0.35069195     0.36500
C2595       C  0.78628822  0.61955647  0.30951865     0.06100
F2596       F  0.76439371  0.58372507  0.32211012    -0.19700
H2597       H  0.78117113  0.56109363  0.34986279     0.15900
F2598       F  0.83702753  0.60091817  0.36019542    -0.23400
H2599       H  0.82084359  0.62255316  0.33194847     0.17700
C2600       C  0.78532652  0.64060404  0.31296724     0.25700
C2601       C  0.77881548  0.65387283  0.29764658    -0.12000
C2602       C  0.77312318  0.64680698  0.27817479    -0.26000
C2603       C  0.77433234  0.62547298  0.27485198     0.36600
C2604       C  0.78077355  0.61223370  0.29029110    -0.27600
F2605       F  0.79014941  0.64839837  0.33144048    -0.19800
H2606       H  0.77812461  0.66973094  0.30148819     0.15900
F2607       F  0.76899978  0.61698882  0.25686519    -0.23500
H2608       H  0.78160391  0.59610122  0.28711248     0.17800
C2609       C  0.98169376  0.52591086  0.44270698    -0.27500
C2610       C  0.99121719  0.53956827  0.42944966     0.06100
C2611       C  0.97919589  0.55116184  0.41616412     0.25700
C2612       C  0.95807010  0.54885640  0.41595754    -0.12000
C2613       C  0.94843417  0.53486636  0.42888348    -0.25900
C2614       C  0.96053248  0.52346529  0.44242991     0.36500
C2615       C  0.01371106  0.54056371  0.42846303     0.06100
F2616       F  0.98790119  0.56475952  0.40337383    -0.19700
H2617       H  0.94928572  0.55811696  0.40559627     0.15900
F2618       F  0.95219094  0.50929113  0.45478470    -0.23400
H2619       H  0.99074731  0.51657577  0.45280486     0.17700
C2620       C  0.02552816  0.54376116  0.44597031     0.25700
C2621       C  0.04681101  0.54367962  0.44472029    -0.12000
C2622       C  0.05662025  0.54046646  0.42602050    -0.26000
C2623       C  0.04470163  0.53735002  0.40852045     0.41400
C2624       C  0.02350427  0.53744551  0.40980211    -0.27600
F2625       F  0.01649665  0.54717255  0.46419612    -0.19800
H2626       H  0.05563255  0.54619491  0.45837909     0.15900
F2627       F  0.05340125  0.53317555  0.39030371    -0.23500
H2628       H  0.01467507  0.53450902  0.39622414     0.17800
C2629       C  0.66458229  0.59275944  0.21913445    -0.27500
C2630       C  0.68223967  0.59772237  0.20800048     0.06100
C2631       C  0.68615533  0.58691181  0.19002393     0.25700
C2632       C  0.67252732  0.57213728  0.18301616    -0.12000
C2633       C  0.65438587  0.56759515  0.19355498    -0.25900
C2634       C  0.65073150  0.57794581  0.21199181     0.36500
C2635       C  0.69666193  0.61400445  0.21494607     0.06100
F2636       F  0.70343337  0.59042204  0.17929082    -0.19700
H2637       H  0.67638269  0.56418528  0.16915659     0.15900
F2638       F  0.63351080  0.57434991  0.22275606    -0.23400
H2639       H  0.66125541  0.60074398  0.23313845     0.17700
C2640       C  0.70187289  0.63038404  0.20216460     0.25700
C2641       C  0.71599747  0.64517277  0.20846214    -0.12000
C2642       C  0.72574270  0.64373605  0.22741040    -0.26000
C2643       C  0.72023807  0.62753534  0.24031848     0.36600
C2644       C  0.70586100  0.61295720  0.23416327    -0.27600
F2645       F  0.69301176  0.63228182  0.18365719    -0.19800
H2646       H  0.71949373  0.65768639  0.19841459     0.15900
F2647       F  0.72824323  0.62613910  0.25923641    -0.23500
H2648       H  0.70207257  0.60065118  0.24436766     0.17800
C2649       C  0.68623931  0.59175073  0.80836187    -0.27500
C2650       C  0.68087321  0.60378134  0.79166589     0.06100
C2651       C  0.66266829  0.59916063  0.78120973     0.25700
C2652       C  0.65000946  0.58314984  0.78776081    -0.12000
C2653       C  0.65522007  0.57143341  0.80484132    -0.25900
C2654       C  0.67378227  0.57579478  0.81481270     0.36500
C2655       C  0.69491504  0.62040621  0.78498523     0.06100
F2656       F  0.65680357  0.61050426  0.76504589    -0.19700
H2657       H  0.63587290  0.58027718  0.77981161     0.15900
F2658       F  0.68033132  0.56432271  0.83061280    -0.23400
H2659       H  0.70040972  0.59451006  0.81630873     0.17700
C2660       C  0.70243063  0.63500044  0.79884680     0.25700
C2661       C  0.71664510  0.64971174  0.79263446    -0.12000
C2662       C  0.72389500  0.64996525  0.77260538    -0.26000
C2663       C  0.71622740  0.63554587  0.75873115     0.36600
C2664       C  0.70191884  0.62102168  0.76486273    -0.27600
F2665       F  0.69579375  0.63521557  0.81835203    -0.19800
H2666       H  0.72204089  0.66086327  0.80346452     0.15900
F2667       F  0.72243579  0.63567128  0.73907706    -0.23500
H2668       H  0.69659365  0.60994204  0.75392263     0.17800
C2669       C  0.62138891  0.51038237  0.97664162    -0.27500
C2670       C  0.62165822  0.49153733  0.98653911     0.06100
C2671       C  0.62128416  0.47365240  0.97482834     0.25700
C2672       C  0.62050752  0.47472557  0.95363853    -0.12000
C2673       C  0.62008824  0.49360709  0.94369790    -0.25900
C2674       C  0.62058065  0.51149140  0.95549444     0.36500
C2675       C  0.62115624  0.49080408  0.00903374     0.06100
F2676       F  0.62185019  0.45513991  0.98385614    -0.19700
H2677       H  0.62032183  0.46071335  0.94501347     0.15900
F2678       F  0.61933084  0.53011448  0.94681473    -0.23400
H2679       H  0.62116477  0.52435028  0.98535958     0.17700
C2680       C  0.63457755  0.50259044  0.02076379     0.25700
C2681       C  0.63291211  0.50286482  0.04192567    -0.12000
C2682       C  0.61783155  0.49145609  0.05186688    -0.26000
C2683       C  0.60456643  0.47945275  0.04003777     0.36600
C2684       C  0.60630405  0.47915974  0.01889899    -0.27600
F2685       F  0.64937922  0.51377577  0.01177065    -0.19800
H2686       H  0.64351138  0.51205117  0.05051415     0.15900
F2687       F  0.58926124  0.46868333  0.04862364    -0.23500
H2688       H  0.59552168  0.47031286  0.01015110     0.17800
C2689       C  0.21569665  0.58728978  0.67005788    -0.27500
C2690       C  0.20421886  0.60485302  0.67462767     0.06100
C2691       C  0.18690193  0.60900615  0.66281241     0.25700
C2692       C  0.18079714  0.59556260  0.64747729    -0.12000
C2693       C  0.19172616  0.57754687  0.64334295    -0.25900
C2694       C  0.20955829  0.57375061  0.65463716     0.36500
C2695       C  0.21071172  0.61912503  0.69114916     0.06100
F2696       F  0.17605964  0.62634151  0.66577679    -0.19700
H2697       H  0.16734216  0.59936811  0.63878576     0.15900
F2698       F  0.22065175  0.55664305  0.65140101    -0.23400
H2699       H  0.22924979  0.58382098  0.67876486     0.17700
C2700       C  0.19708301  0.62592526  0.70634210     0.25700
C2701       C  0.20351064  0.63965281  0.72147021    -0.12000
C2702       C  0.22355761  0.64702879  0.72164648    -0.26000
C2703       C  0.23709980  0.64012078  0.70648353     0.36600
C2704       C  0.23077592  0.62632704  0.69158228    -0.27600
F2705       F  0.17767585  0.61892188  0.70686449    -0.19800
H2706       H  0.19280706  0.64451048  0.73298806     0.15900
F2707       F  0.25665553  0.64660760  0.70611475    -0.23500
H2708       H  0.24157407  0.62145972  0.68012328     0.17800
C2709       C  0.80880535  0.61053928  0.66840819    -0.27500
C2710       C  0.78989278  0.60907412  0.67812716     0.06100
C2711       C  0.77701282  0.59270992  0.67299631     0.25700
C2712       C  0.78343165  0.57771505  0.65908347    -0.12000
C2713       C  0.80274708  0.57880551  0.64994273    -0.25900
C2714       C  0.81510620  0.59580313  0.65438663     0.36500
C2715       C  0.78371333  0.62484398  0.69329979     0.06100
F2716       F  0.75854637  0.59080196  0.68203062    -0.19700
H2717       H  0.77358845  0.56490015  0.65600910     0.15900
F2718       F  0.83329472  0.59842943  0.64498915    -0.23400
H2719       H  0.81872666  0.62327550  0.67160456     0.17700
C2720       C  0.79604069  0.62946228  0.71022999     0.25700
C2721       C  0.78987434  0.64418510  0.72449353    -0.12000
C2722       C  0.77144197  0.65481034  0.72204301    -0.26000
C2723       C  0.75937210  0.65038401  0.70483713     0.36600
C2724       C  0.76545564  0.63561079  0.69074770    -0.27600
F2725       F  0.81372998  0.61923200  0.71334719    -0.19800
H2726       H  0.79943765  0.64710030  0.73753761     0.15900
F2727       F  0.74117478  0.65978495  0.70200130    -0.23500
H2728       H  0.75579925  0.63250838  0.67778440     0.17800
C2729       C  0.97348761  0.49228871  0.59148721    -0.27500
C2730       C  0.98464229  0.50508775  0.60440425     0.06100
C2731       C  0.97423010  0.51627296  0.61937398     0.25700
C2732       C  0.95309505  0.51459787  0.62130512    -0.12000
C2733       C  0.94189587  0.50175071  0.60840804    -0.25900
C2734       C  0.95237632  0.49054567  0.59343799     0.36500
C2735       C  0.00708325  0.50654117  0.60221065     0.06100
F2736       F  0.98451850  0.52848823  0.63242890    -0.19700
H2737       H  0.94551216  0.52327961  0.63306759     0.15900
F2738       F  0.94229190  0.47848044  0.58012258    -0.23400
H2739       H  0.98113233  0.48382112  0.57959717     0.17700
C2740       C  0.01910833  0.48889644  0.60106013     0.25700
C2741       C  0.04021075  0.49032063  0.59902244    -0.12000
C2742       C  0.04989030  0.50933403  0.59802708    -0.26000
C2743       C  0.03777558  0.52704017  0.59893607     0.36600
C2744       C  0.01661593  0.52557955  0.60105546    -0.27600
F2745       F  0.01051965  0.47021363  0.60245349    -0.19800
H2746       H  0.04895934  0.47638513  0.59860418     0.15900
F2747       F  0.04614440  0.54577632  0.59726976    -0.23500
H2748       H  0.00760524  0.53937778  0.60148776     0.17800
C2749       C  0.69305767  0.11488994  0.66071938    -0.27500
C2750       C  0.68447398  0.12257807  0.67874065     0.06100
C2751       C  0.66305721  0.12496995  0.67949794     0.25700
C2752       C  0.65077042  0.11965671  0.66277723    -0.12000
C2753       C  0.65942419  0.11145191  0.64507230    -0.25900
C2754       C  0.68076538  0.10922658  0.64422600     0.36500
C2755       C  0.69795240  0.12878929  0.69619828     0.06100
F2756       F  0.65385457  0.13169444  0.69669343    -0.19700
H2757       H  0.63438913  0.12115174  0.66399739     0.15900
F2758       F  0.68982295  0.10169481  0.62727764    -0.23400
H2759       H  0.70941463  0.11338719  0.65928002     0.17700
C2760       C  0.71486044  0.11697207  0.70244783     0.25700
C2761       C  0.72803717  0.12390230  0.71787910    -0.12000
C2762       C  0.72459016  0.14262128  0.72764682    -0.26000
C2763       C  0.70738768  0.15405524  0.72175058     0.36600
C2764       C  0.69442724  0.14728748  0.70627944    -0.27600
F2765       F  0.71867025  0.09866911  0.69370806    -0.19800
H2766       H  0.74105163  0.11469517  0.72202603     0.15900
F2767       F  0.70355133  0.17241282  0.73028509    -0.23500
H2768       H  0.68195463  0.15702385  0.70167866     0.17800
C2769       C  0.66684424  0.70586236  0.66793362    -0.27500
C2770       C  0.67299619  0.71906338  0.68366718     0.06100
C2771       C  0.66365701  0.73825202  0.68500023     0.25700
C2772       C  0.64907314  0.74424542  0.67069330    -0.12000
C2773       C  0.64331375  0.73138030  0.65456534    -0.25900
C2774       C  0.65215522  0.71188847  0.65354529     0.36500
C2775       C  0.68906425  0.71288585  0.69861135     0.06100
F2776       F  0.66844739  0.75120545  0.70031972    -0.19700
H2777       H  0.64233494  0.75919444  0.67222471     0.15900
F2778       F  0.64740291  0.69901899  0.63816392    -0.23400
H2779       H  0.67383767  0.69101855  0.66645162     0.17700
C2780       C  0.68799061  0.69410349  0.70866613     0.25700
C2781       C  0.70304297  0.68843627  0.72262305    -0.12000
C2782       C  0.71952026  0.70134065  0.72718462    -0.26000
C2783       C  0.72058976  0.72022030  0.71724952     0.36600
C2784       C  0.70552218  0.72587162  0.70313752    -0.27600
F2785       F  0.67214778  0.68132985  0.70531357    -0.19800
H2786       H  0.70191147  0.67370106  0.72982331     0.15900
F2787       F  0.73597177  0.73332455  0.72127729    -0.23500
H2788       H  0.70682136  0.74039665  0.69556430     0.17800
C2789       C  0.63364948  0.89727558  0.57096173    -0.27500
C2790       C  0.61745606  0.90871563  0.56299716     0.06100
C2791       C  0.59991901  0.89862319  0.55606826     0.25700
C2792       C  0.59858772  0.87745330  0.55743702    -0.12000
C2793       C  0.61455443  0.86612696  0.56600700    -0.25900
C2794       C  0.63220898  0.87617946  0.57256592     0.36500
C2795       C  0.61879381  0.93116143  0.56266560     0.06100
F2796       F  0.58376300  0.90928144  0.54883226    -0.19700
H2797       H  0.58479119  0.86996458  0.55245072     0.15900
F2798       F  0.64818532  0.86557357  0.58024442    -0.23400
H2799       H  0.64740582  0.90475192  0.57607711     0.17700
C2800       C  0.62335211  0.94193880  0.58051224     0.25700
C2801       C  0.62477681  0.96309114  0.58022095    -0.12000
C2802       C  0.62162817  0.97397606  0.56216362    -0.26000
C2803       C  0.61722079  0.96313772  0.54421728     0.36600
C2804       C  0.61575940  0.94192216  0.54454437    -0.27600
F2805       F  0.62585355  0.93202482  0.59839105    -0.19800
H2806       H  0.62787146  0.97095412  0.59432298     0.15900
F2807       F  0.61479349  0.97291613  0.52626455    -0.23500
H2808       H  0.61251649  0.93384366  0.53057785     0.17800
loop_ 
_geom_bond_atom_site_label_1 
_geom_bond_atom_site_label_2 
_geom_bond_distance 
_geom_bond_site_symmetry_2 
_ccdc_geom_bond_type 
O1           Cu9   1.991       .  S
O1           C11   1.276       .  A
O2           Cu9   1.992       .  S
O2           C12   1.277       .  A
O3           Cu9   1.986       .  S
O3           C13   1.275       .  A
O4           Cu9   1.986       .  S
O4           C14   1.275       .  A
O5          Cu10   2.077       .  S
O5           C14   1.284       .  A
O6          Cu10   2.077       .  S
O6           C13   1.284       .  A
O7          Cu10   2.076       .  S
O7           C12   1.284       .  A
O8          Cu10   2.079       .  S
O8           C11   1.284       .  A
Cu9         Cu10   2.362       .  S
C11         C638   1.491       .  S
C12         C206   1.490       .  S
C13         C494   1.488       .  S
C14         C398   1.489       .  S
O15         Cu23   1.996       .  S
O15          C25   1.277       .  A
O16         Cu23   1.997       .  S
O16          C26   1.277       .  A
O17         Cu23   1.987       .  S
O17          C27   1.276       .  A
O18         Cu23   1.985       .  S
O18          C28   1.276       .  A
O19         Cu24   2.076       .  S
O19          C28   1.284       .  A
O20         Cu24   2.081       .  S
O20          C27   1.284       .  A
O21         Cu24   2.080       .  S
O21          C26   1.285       .  A
O22         Cu24   2.083       .  S
O22          C25   1.285       .  A
Cu23        Cu24   2.361       .  S
C25         C446   1.495       .  S
C26         C350   1.492       .  S
C27         C686   1.492       .  S
C28         C254   1.489       .  S
O29         Cu37   2.080       .  S
O29          C39   1.285       .  A
O30         Cu37   2.080       .  S
O30          C40   1.285       .  A
O31         Cu37   2.067       .  S
O31          C41   1.282       .  A
O32         Cu37   2.069       .  S
O32          C42   1.283       .  A
O33         Cu38   1.992       .  S
O33          C42   1.277       .  A
O34         Cu38   1.992       .  S
O34          C41   1.277       .  A
O35         Cu38   1.981       .  S
O35          C40   1.275       .  A
O36         Cu38   1.983       .  S
O36          C39   1.275       .  A
Cu37        Cu38   2.363       .  S
C39         C470   1.488       .  S
C40         C374   1.489       .  S
C41         C182   1.485       .  S
C42         C614   1.486       .  S
O43         Cu51   2.075       .  S
O43          C53   1.284       .  A
O44         Cu51   2.076       .  S
O44          C54   1.284       .  A
O45         Cu51   2.085       .  S
O45          C55   1.285       .  A
O46         Cu51   2.080       .  S
O46          C56   1.285       .  A
O47         Cu52   1.975       .  S
O47          C56   1.274       .  A
O48         Cu52   1.978       .  S
O48          C55   1.274       .  A
O49         Cu52   1.987       .  S
O49          C54   1.275       .  A
O50         Cu52   1.984       .  S
O50          C53   1.275       .  A
Cu51        Cu52   2.362       .  S
C53         C230   1.487       .  S
C54         C662   1.488       .  S
C55         C422   1.490       .  S
C56         C326   1.487       .  S
O57         Cu65   2.064       .  S
O57          C67   1.282       .  A
O58         Cu65   2.062       .  S
O58          C68   1.282       .  A
O59         Cu65   2.084       .  S
O59          C69   1.285       .  A
O60         Cu65   2.082       .  S
O60          C70   1.285       .  A
O61         Cu66   1.991       .  S
O61          C70   1.276       .  A
O62         Cu66   1.991       .  S
O62          C69   1.276       .  A
O63         Cu66   1.990       .  S
O63          C68   1.276       .  A
O64         Cu66   1.992       .  S
O64          C67   1.276       .  A
Cu65        Cu66   2.362       .  S
C67         C542   1.483       .  S
C68         C590   1.483       .  S
C69         C734   1.493       .  S
C70         C302   1.493       .  S
O71         Cu79   2.068       .  S
O71          C81   1.283       .  A
O72         Cu79   2.070       .  S
O72          C82   1.283       .  A
O73         Cu79   2.080       .  S
O73          C83   1.285       .  A
O74         Cu79   2.075       .  S
O74          C84   1.284       .  A
O75         Cu80   1.978       .  S
O75          C84   1.274       .  A
O76         Cu80   1.982       .  S
O76          C83   1.275       .  A
O77         Cu80   1.999       .  S
O77          C82   1.277       .  A
O78         Cu80   1.998       .  S
O78          C81   1.277       .  A
Cu79        Cu80   2.363       .  S
C81         C710   1.488       .  S
C82         C278   1.489       .  S
C83         C518   1.489       .  S
C84         C566   1.484       .  S
O85         Cu93   1.986   1_454  S
O85          C95   1.275       .  A
O86         Cu93   1.991       .  S
O86          C96   1.276       .  A
O87         Cu93   1.986   1_455  S
O87          C97   1.276       .  A
O88         Cu93   1.986   1_554  S
O88          C98   1.275       .  A
O89         Cu94   2.071   1_554  S
O89          C98   1.283       .  A
O90         Cu94   2.069   1_455  S
O90          C97   1.283       .  A
O91         Cu94   2.087       .  S
O91          C96   1.286       .  A
O92         Cu94   2.084   1_454  S
O92          C95   1.285       .  A
Cu93        Cu94   2.362       .  S
C95         C782   1.491       .  S
C96        C1118   1.495       .  S
C97        C1286   1.485       .  S
C98         C974   1.486       .  S
O99        Cu107   2.072       .  S
O99         C109   1.283       .  A
O100       Cu107   2.072   1_556  S
O100        C110   1.284       .  A
O101       Cu107   2.067       .  S
O101        C111   1.283       .  A
O102       Cu107   2.073   1_556  S
O102        C112   1.284       .  A
O103       Cu108   1.989   1_556  S
O103        C112   1.276       .  A
O104       Cu108   1.987       .  S
O104        C111   1.276       .  A
O105       Cu108   1.993   1_556  S
O105        C110   1.276       .  A
O106       Cu108   1.994       .  S
O106        C109   1.277       .  A
Cu107      Cu108   2.363       .  S
C109        C926   1.488       .  S
C110        C878   1.487       .  S
C111        C830   1.484       .  S
C112       C1214   1.489       .  S
O113       Cu121   1.985   1_454  S
O113        C123   1.275       .  A
O114       Cu121   1.984       .  S
O114        C124   1.275       .  A
O115       Cu121   1.993   1_554  S
O115        C125   1.277       .  A
O116       Cu121   1.994   1_455  S
O116        C126   1.277       .  A
O117       Cu122   2.078   1_455  S
O117        C126   1.284       .  A
O118       Cu122   2.078   1_554  S
O118        C125   1.284       .  A
O119       Cu122   2.077       .  S
O119        C124   1.284       .  A
O120       Cu122   2.076   1_454  S
O120        C123   1.284       .  A
Cu121      Cu122   2.362       .  S
C123        C758   1.486       .  S
C124       C1094   1.488       .  S
C125        C950   1.491       .  S
C126       C1262   1.490       .  S
O127       Cu135   2.067       .  S
O127        C137   1.283       .  A
O128       Cu135   2.068   1_554  S
O128        C138   1.283       .  A
O129       Cu135   2.079       .  S
O129        C139   1.285       .  A
O130       Cu135   2.076   1_554  S
O130        C140   1.284       .  A
O131       Cu136   1.980   1_554  S
O131        C140   1.275       .  A
O132       Cu136   1.984       .  S
O132        C139   1.275       .  A
O133       Cu136   1.991   1_554  S
O133        C138   1.276       .  A
O134       Cu136   1.988       .  S
O134        C137   1.276       .  A
Cu135      Cu136   2.363       .  S
C137       C1190   1.484       .  S
C138        C806   1.487       .  S
C139        C854   1.489       .  S
C140        C902   1.486       .  S
O141       Cu149   1.987       .  S
O141        C151   1.275       .  A
O142       Cu149   1.989   1_455  S
O142        C152   1.276       .  A
O143       Cu149   1.990       .  S
O143        C153   1.276       .  A
O144       Cu149   1.987   1_455  S
O144        C154   1.276       .  A
O145       Cu150   2.067       .  S
O145        C154   1.283       .  A
O146       Cu150   2.074   1_655  S
O146        C153   1.283       .  A
O147       Cu150   2.077       .  S
O147        C152   1.284       .  A
O148       Cu150   2.074   1_655  S
O148        C151   1.284       .  A
Cu149      Cu150   2.363   1_655  S
C151       C1022   1.485       .  S
C152       C1070   1.490       .  S
C153       C1166   1.489       .  S
C154       C1352   1.484       .  S
O155       Cu163   1.994       .  S
O155        C165   1.276       .  A
O156       Cu163   1.995   1_455  S
O156        C166   1.276       .  A
O157       Cu163   1.990   1_455  S
O157        C167   1.277       .  A
O158       Cu163   1.994       .  S
O158        C168   1.277       .  A
O159       Cu164   2.069       .  S
O159        C168   1.283       .  A
O160       Cu164   2.062   1_455  S
O160        C167   1.282       .  A
O161       Cu164   2.083   1_455  S
O161        C166   1.285       .  A
O162       Cu164   2.084       .  S
O162        C165   1.285       .  A
Cu163      Cu164   2.362       .  S
C165        C998   1.493       .  S
C166       C1046   1.494       .  S
C167       C1328   1.483       .  S
C168       C1142   1.488       .  S
N169        N170   1.316       .  A
N169        C173   1.344       .  A
N169       Cu177   2.061       .  S
N170        C171   1.344       .  A
N170       Cu176   2.054       .  S
C171        C172   1.384       .  A
C171        H174   1.082       .  S
C172       C2793   1.474       .  S
C172        C173   1.386       .  A
C173        H175   1.082       .  S
Cu176       N179   2.052       .  S
Cu177       N187   2.062       .  S
Cu178       N180   2.143       .  S
Cu178       N186   2.144       .  S
N179        N180   1.324       .  A
N179        C183   1.336       .  A
N180        C181   1.363       .  A
C181        C182   1.401       .  A
C181        H184   1.082       .  S
C182        C183   1.374       .  A
C183        H185   1.082       .  S
N186        N187   1.325       .  A
N186        C190   1.360       .  A
N187        C188   1.339       .  A
C188        C189   1.379       .  A
C188        H191   1.082       .  S
C189       C2773   1.498       .  S
C189        C190   1.402       .  A
C190        H192   1.081       .  S
N193        N194   1.315       .  A
N193        C197   1.344       .  A
N193       Cu201   2.066       .  S
N194        C195   1.343       .  A
N194       Cu200   2.052       .  S
C195        C196   1.387   1_545  A
C195        H198   1.081       .  S
C196       C2802   1.484       .  S
C196        C197   1.390   1_565  A
C197        H199   1.082       .  S
Cu200       N203   2.052       .  S
Cu201       N211   2.068       .  S
Cu202       N204   2.153       .  S
Cu202       N210   2.155       .  S
N203        N204   1.324       .  A
N203        C207   1.336       .  A
N204        C205   1.365       .  A
C205        C206   1.403       .  A
C205        H208   1.082       .  S
C206        C207   1.375       .  A
C207        H209   1.082       .  S
N210        N211   1.327       .  A
N210        C214   1.360       .  A
N211        C212   1.342       .  A
C212        C213   1.377       .  A
C212        H215   1.082       .  S
C213       C2753   1.495       .  S
C213        C214   1.400       .  A
C214        H216   1.082       .  S
N217        N218   1.315       .  A
N217        C221   1.343       .  A
N217       Cu225   2.053       .  S
N218        C219   1.345       .  A
N218       Cu224   2.062       .  S
C219        C220   1.390       .  A
C219        H222   1.081       .  S
C220       C2733   1.484       .  S
C220        C221   1.387       .  A
C221        H223   1.082       .  S
Cu224       N227   2.060       .  S
Cu225       N235   2.054       .  S
Cu226       N228   2.146       .  S
Cu226       N234   2.147       .  S
N227        N228   1.325       .  A
N227        C231   1.335       .  A
N228        C229   1.364       .  A
C229        C230   1.402       .  A
C229        H232   1.082       .  S
C230        C231   1.375       .  A
C231        H233   1.082       .  S
N234        N235   1.324       .  A
N234        C238   1.360       .  A
N235        C236   1.338       .  A
C236        C237   1.378       .  A
C236        H239   1.081       .  S
C237       C2713   1.497       .  S
C237        C238   1.402       .  A
C238        H240   1.082       .  S
N241        N242   1.315       .  A
N241        C245   1.345       .  A
N241       Cu249   2.063       .  S
N242        C243   1.342       .  A
N242       Cu248   2.058       .  S
C243        C244   1.389       .  A
C243        H246   1.081       .  S
C244       C2742   1.488       .  S
C244        C245   1.391       .  A
C245        H247   1.080       .  S
Cu248       N251   2.056       .  S
Cu249       N259   2.065       .  S
Cu250       N252   2.143       .  S
Cu250       N258   2.145       .  S
N251        N252   1.324       .  A
N251        C255   1.336       .  A
N252        C253   1.363       .  A
C253        C254   1.401       .  A
C253        H256   1.082       .  S
C254        C255   1.377       .  A
C255        H257   1.082       .  S
N258        N259   1.325       .  A
N258        C262   1.359       .  A
N259        C260   1.340       .  A
C260        C261   1.381       .  A
C260        H263   1.082       .  S
C261       C2693   1.501       .  S
C261        C262   1.402       .  A
C262        H264   1.081       .  S
N265        N266   1.315       .  A
N265        C269   1.342       .  A
N265       Cu273   2.054       .  S
N266        C267   1.344       .  A
N266       Cu272   2.059       .  S
C267        C268   1.389       .  A
C267        H270   1.082       .  S
C268       C2673   1.484       .  S
C268        C269   1.388       .  A
C269        H271   1.081       .  S
Cu272       N275   2.059       .  S
Cu273       N283   2.054       .  S
Cu274       N276   2.154       .  S
Cu274       N282   2.154       .  S
N275        N276   1.326       .  A
N275        C279   1.337       .  A
N276        C277   1.364       .  A
C277        C278   1.402       .  A
C277        H280   1.082       .  S
C278        C279   1.375       .  A
C279        H281   1.082       .  S
N282        N283   1.324       .  A
N282        C286   1.362       .  A
N283        C284   1.338       .  A
C284        C285   1.378       .  A
C284        H287   1.081       .  S
C285       C2653   1.501       .  S
C285        C286   1.404       .  A
C286        H288   1.082       .  S
N289        N290   1.315       .  A
N289        C293   1.345       .  A
N289       Cu297   2.066       .  S
N290        C291   1.343       .  A
N290       Cu296   2.057       .  S
C291        C292   1.389       .  A
C291        H294   1.080       .  S
C292       C2682   1.488       .  S
C292        C293   1.391       .  A
C293        H295   1.082       .  S
Cu296       N299   2.057       .  S
Cu297       N307   2.068       .  S
Cu298       N300   2.158       .  S
Cu298       N306   2.159       .  S
N299        N300   1.325       .  A
N299        C303   1.337       .  A
N300        C301   1.366       .  A
C301        C302   1.404       .  A
C301        H304   1.082       .  S
C302        C303   1.376       .  A
C303        H305   1.082       .  S
N306        N307   1.326       .  A
N306        C310   1.363       .  A
N307        C308   1.340       .  A
C308        C309   1.382       .  A
C308        H311   1.081       .  S
C309       C2633   1.508       .  S
C309        C310   1.406       .  A
C310        H312   1.081       .  S
N313        N314   1.316       .  A
N313        C317   1.342       .  A
N313       Cu321   2.060       .  S
N314        C315   1.345       .  A
N314       Cu320   2.064       .  S
C315        C316   1.391       .  A
C315        H318   1.081       .  S
C316       C2613   1.487       .  S
C316        C317   1.389       .  A
C317        H319   1.081       .  S
Cu320       N323   2.063       .  S
Cu321       N331   2.062       .  S
Cu322       N324   2.135       .  S
Cu322       N330   2.136       .  S
N323        N324   1.325       .  A
N323        C327   1.335       .  A
N324        C325   1.363       .  A
C325        C326   1.399       .  A
C325        H328   1.082       .  S
C326        C327   1.377       .  A
C327        H329   1.082       .  S
N330        N331   1.325       .  A
N330        C334   1.357       .  A
N331        C332   1.340       .  A
C332        C333   1.380       .  A
C332        H335   1.081       .  S
C333       C2593   1.497       .  S
C333        C334   1.399       .  A
C334        H336   1.082       .  S
N337        N338   1.316       .  A
N337        C341   1.341       .  A
N337       Cu345   2.050       .  S
N338        C339   1.345       .  A
N338       Cu344   2.064       .  S
C339        C340   1.388       .  A
C339        H342   1.082       .  S
C340       C2622   1.480       .  S
C340        C341   1.386       .  A
C341        H343   1.081       .  S
Cu344       N347   2.065       .  S
Cu345       N355   2.049       .  S
Cu346       N348   2.153       .  S
Cu346       N354   2.153       .  S
N347        N348   1.326       .  A
N347        C351   1.338       .  A
N348        C349   1.365       .  A
C349        C350   1.402       .  A
C349        H352   1.082       .  S
C350        C351   1.377       .  A
C351        H353   1.082       .  S
N354        N355   1.324       .  A
N354        C358   1.361       .  A
N355        C356   1.338       .  A
C356        C357   1.378       .  A
C356        H359   1.081       .  S
C357       C2573   1.501       .  S
C357        C358   1.405       .  A
C358        H360   1.081       .  S
N361        N362   1.317       .  A
N361        C365   1.345       .  A
N361       Cu369   2.066       .  S
N362        C363   1.345       .  A
N362       Cu368   2.065       .  S
C363        C364   1.387       .  A
C363        H366   1.082       .  S
C364       C2553   1.481       .  S
C364        C365   1.387       .  A
C365        H367   1.082       .  S
Cu368       N371   2.064       .  S
Cu369       N379   2.068       .  S
Cu370       N372   2.138       .  S
Cu370       N378   2.139       .  S
N371        N372   1.325       .  A
N371        C375   1.336       .  A
N372        C373   1.363       .  A
C373        C374   1.400       .  A
C373        H376   1.082       .  S
C374        C375   1.378       .  A
C375        H377   1.082       .  S
N378        N379   1.324       .  A
N378        C382   1.360       .  A
N379        C380   1.340       .  A
C380        C381   1.383       .  A
C380        H383   1.080       .  S
C381       C2533   1.504       .  S
C381        C382   1.402       .  A
C382        H384   1.082       .  S
N385        N386   1.317       .  A
N385        C389   1.345       .  A
N385       Cu393   2.066       .  S
N386        C387   1.344       .  A
N386       Cu392   2.064       .  S
C387        C388   1.389   1_545  A
C387        H390   1.082       .  S
C388       C2562   1.487       .  S
C388        C389   1.390   1_565  A
C389        H391   1.081       .  S
Cu392       N395   2.063       .  S
Cu393       N403   2.067       .  S
Cu394       N396   2.138       .  S
Cu394       N402   2.140       .  S
N395        N396   1.324       .  A
N395        C399   1.337       .  A
N396        C397   1.363       .  A
C397        C398   1.400       .  A
C397        H400   1.082       .  S
C398        C399   1.378       .  A
C399        H401   1.082       .  S
N402        N403   1.324       .  A
N402        C406   1.359       .  A
N403        C404   1.341       .  A
C404        C405   1.382       .  A
C404        H407   1.081       .  S
C405       C2513   1.503       .  S
C405        C406   1.402       .  A
C406        H408   1.081       .  S
N409        N410   1.315       .  A
N409        C413   1.345       .  A
N409       Cu417   2.058       .  S
N410        C411   1.343       .  A
N410       Cu416   2.059       .  S
C411        C412   1.388       .  A
C411        H414   1.082       .  S
C412       C2493   1.483       .  S
C412        C413   1.389       .  A
C413        H415   1.081       .  S
Cu416       N419   2.058       .  S
Cu417       N427   2.059       .  S
Cu418       N420   2.145       .  S
Cu418       N426   2.147       .  S
N419        N420   1.324       .  A
N419        C423   1.335       .  A
N420        C421   1.365       .  A
C421        C422   1.403       .  A
C421        H424   1.082       .  S
C422        C423   1.377       .  A
C423        H425   1.082       .  S
N426        N427   1.326       .  A
N426        C430   1.359       .  A
N427        C428   1.339       .  A
C428        C429   1.376       .  A
C428        H431   1.082       .  S
C429       C2473   1.492       .  S
C429        C430   1.400       .  A
C430        H432   1.082       .  S
N433        N434   1.315       .  A
N433        C437   1.344       .  A
N433       Cu441   2.061       .  S
N434        C435   1.343       .  A
N434       Cu440   2.058       .  S
C435        C436   1.389       .  A
C435        H438   1.081       .  S
C436       C2502   1.486       .  S
C436        C437   1.390       .  A
C437        H439   1.081       .  S
Cu440       N443   2.058       .  S
Cu441       N451   2.062       .  S
Cu442       N444   2.158       .  S
Cu442       N450   2.160       .  S
N443        N444   1.324       .  A
N443        C447   1.337       .  A
N444        C445   1.366       .  A
C445        C446   1.405       .  A
C445        H448   1.082       .  S
C446        C447   1.377       .  A
C447        H449   1.082       .  S
N450        N451   1.326       .  A
N450        C454   1.362       .  A
N451        C452   1.340       .  A
C452        C453   1.378       .  A
C452        H455   1.082       .  S
C453       C2462   1.501       .  S
C453        C454   1.403       .  A
C454        H456   1.082       .  S
N457        N458   1.316       .  A
N457        C461   1.344       .  A
N457       Cu465   2.058       .  S
N458        C459   1.344       .  A
N458       Cu464   2.068       .  S
C459        C460   1.391       .  A
C459        H462   1.081       .  S
C460       C2433   1.487       .  S
C460        C461   1.389       .  A
C461        H463   1.081       .  S
Cu464       N467   2.069       .  S
Cu465       N475   2.059       .  S
Cu466       N468   2.139       .  S
Cu466       N474   2.140       .  S
N467        N468   1.325       .  A
N467        C471   1.337       .  A
N468        C469   1.363       .  A
C469        C470   1.399       .  A
C469        H472   1.082       .  S
C470        C471   1.378       .  A
C471        H473   1.082       .  S
N474        N475   1.325       .  A
N474        C478   1.359       .  A
N475        C476   1.339       .  A
C476        C477   1.379       .  A
C476        H479   1.081       .  S
C477       C2413   1.497       .  S
C477        C478   1.400       .  A
C478        H480   1.082       .  S
N481        N482   1.316       .  A
N481        C485   1.345       .  A
N481       Cu489   2.055       .  S
N482        C483   1.343       .  A
N482       Cu488   2.062       .  S
C483        C484   1.387   1_545  A
C483        H486   1.082       .  S
C484       C2442   1.480       .  S
C484        C485   1.387   1_565  A
C485        H487   1.082       .  S
Cu488       N491   2.062       .  S
Cu489       N499   2.056       .  S
Cu490       N492   2.142       .  S
Cu490       N498   2.144       .  S
N491        N492   1.325       .  A
N491        C495   1.337       .  A
N492        C493   1.363       .  A
C493        C494   1.400       .  A
C493        H496   1.082       .  S
C494        C495   1.377       .  A
C495        H497   1.082       .  S
N498        N499   1.326       .  A
N498        C502   1.359       .  A
N499        C500   1.339       .  A
C500        C501   1.373       .  A
C500        H503   1.082       .  S
C501       C2393   1.486       .  S
C501        C502   1.398       .  A
C502        H504   1.082       .  S
N505        N506   1.315       .  A
N505        C509   1.344       .  A
N505       Cu513   2.059       .  S
N506        C507   1.343       .  A
N506       Cu512   2.055       .  S
C507        C508   1.386       .  A
C507        H510   1.082       .  S
C508       C2373   1.481       .  S
C508        C509   1.389       .  A
C509        H511   1.081       .  S
Cu512       N515   2.056       .  S
Cu513       N523   2.060       .  S
Cu514       N516   2.149       .  S
Cu514       N522   2.151       .  S
N515        N516   1.325       .  A
N515        C519   1.336       .  A
N516        C517   1.364       .  A
C517        C518   1.402       .  A
C517        H520   1.082       .  S
C518        C519   1.376       .  A
C519        H521   1.082       .  S
N522        N523   1.325       .  A
N522        C526   1.361       .  A
N523        C524   1.338       .  A
C524        C525   1.379       .  A
C524        H527   1.081       .  S
C525       C2362   1.502       .  S
C525        C526   1.403       .  A
C526        H528   1.081       .  S
N529        N530   1.316       .  A
N529        C533   1.343       .  A
N529       Cu537   2.060       .  S
N530        C531   1.344       .  A
N530       Cu536   2.051       .  S
C531        C532   1.385       .  A
C531        H534   1.082       .  S
C532       C2382   1.477       .  S
C532        C533   1.386       .  A
C533        H535   1.082       .  S
Cu536       N539   2.050       .  S
Cu537       N547   2.061       .  S
Cu538       N540   2.142       .  S
Cu538       N546   2.143       .  S
N539        N540   1.324       .  A
N539        C543   1.336       .  A
N540        C541   1.362       .  A
C541        C542   1.400       .  A
C541        H544   1.082       .  S
C542        C543   1.374       .  A
C543        H545   1.082       .  S
N546        N547   1.325       .  A
N546        C550   1.359       .  A
N547        C548   1.340       .  A
C548        C549   1.378       .  A
C548        H551   1.082       .  S
C549       C2333   1.493       .  S
C549        C550   1.399       .  A
C550        H552   1.082       .  S
N553        N554   1.315       .  A
N553        C557   1.343       .  A
N553       Cu561   2.056       .  S
N554        C555   1.344       .  A
N554       Cu560   2.057       .  S
C555        C556   1.389       .  A
C555        H558   1.081       .  S
C556       C2313   1.483       .  S
C556        C557   1.388       .  A
C557        H559   1.082       .  S
Cu560       N563   2.056       .  S
Cu561       N571   2.058       .  S
Cu562       N564   2.136       .  S
Cu562       N570   2.137       .  S
N563        N564   1.324       .  A
N563        C567   1.334       .  A
N564        C565   1.363       .  A
C565        C566   1.400       .  A
C565        H568   1.082       .  S
C566        C567   1.375       .  A
C567        H569   1.082       .  S
N570        N571   1.326       .  A
N570        C574   1.358       .  A
N571        C572   1.338       .  A
C572        C573   1.375       .  A
C572        H575   1.082       .  S
C573       C2293   1.488       .  S
C573        C574   1.397       .  A
C574        H576   1.082       .  S
N577        N578   1.316       .  A
N577        C581   1.344       .  A
N577       Cu585   2.059       .  S
N578        C579   1.343       .  A
N578       Cu584   2.058       .  S
C579        C580   1.388       .  A
C579        H582   1.081       .  S
C580       C2322   1.482       .  S
C580        C581   1.388       .  A
C581        H583   1.082       .  S
Cu584       N587   2.058       .  S
Cu585       N595   2.060       .  S
Cu586       N588   2.132       .  S
Cu586       N594   2.133       .  S
N587        N588   1.325       .  A
N587        C591   1.337       .  A
N588        C589   1.361       .  A
C589        C590   1.397       .  A
C589        H592   1.082       .  S
C590        C591   1.376       .  A
C591        H593   1.082       .  S
N594        N595   1.325       .  A
N594        C598   1.358       .  A
N595        C596   1.339       .  A
C596        C597   1.377       .  A
C596        H599   1.082       .  S
C597       C2282   1.490       .  S
C597        C598   1.398       .  A
C598        H600   1.082       .  S
N601        N602   1.315       .  A
N601        C605   1.342       .  A
N601       Cu609   2.055       .  S
N602        C603   1.343       .  A
N602       Cu608   2.052       .  S
C603        C604   1.388       .  A
C603        H606   1.081       .  S
C604       C2253   1.480       .  S
C604        C605   1.387       .  A
C605        H607   1.082       .  S
Cu608       N611   2.052       .  S
Cu609       N619   2.057       .  S
Cu610       N612   2.146       .  S
Cu610       N618   2.147       .  S
N611        N612   1.324       .  A
N611        C615   1.336       .  A
N612        C613   1.364       .  A
C613        C614   1.402       .  A
C613        H616   1.082       .  S
C614        C615   1.374       .  A
C615        H617   1.082       .  S
N618        N619   1.326       .  A
N618        C622   1.359       .  A
N619        C620   1.340       .  A
C620        C621   1.377       .  A
C620        H623   1.082       .  S
C621       C2233   1.493       .  S
C621        C622   1.400       .  A
C622        H624   1.082       .  S
N625        N626   1.315       .  A
N625        C629   1.343       .  A
N625       Cu633   2.050       .  S
N626        C627   1.342       .  A
N626       Cu632   2.056       .  S
C627        C628   1.388   1_545  A
C627        H630   1.082       .  S
C628       C2262   1.482       .  S
C628        C629   1.388   1_565  A
C629        H631   1.081       .  S
Cu632       N635   2.056       .  S
Cu633       N643   2.051       .  S
Cu634       N636   2.153       .  S
Cu634       N642   2.154       .  S
N635        N636   1.325       .  A
N635        C639   1.336       .  A
N636        C637   1.365       .  A
C637        C638   1.403       .  A
C637        H640   1.082       .  S
C638        C639   1.376       .  A
C639        H641   1.082       .  S
N642        N643   1.325       .  A
N642        C646   1.362       .  A
N643        C644   1.338       .  A
C644        C645   1.375       .  A
C644        H647   1.082       .  S
C645       C2213   1.496       .  S
C645        C646   1.403       .  A
C646        H648   1.082       .  S
N649        N650   1.316       .  A
N649        C653   1.343       .  A
N649       Cu657   2.051       .  S
N650        C651   1.344       .  A
N650       Cu656   2.065       .  S
C651        C652   1.389       .  A
C651        H654   1.081       .  S
C652       C2202   1.481       .  S
C652        C653   1.386       .  A
C653        H655   1.082       .  S
Cu656       N659   2.066       .  S
Cu657       N667   2.051       .  S
Cu658       N660   2.138       .  S
Cu658       N666   2.138       .  S
N659        N660   1.325       .  A
N659        C663   1.338       .  A
N660        C661   1.362       .  A
C661        C662   1.399       .  A
C661        H664   1.082       .  S
C662        C663   1.378       .  A
C663        H665   1.082       .  S
N666        N667   1.324       .  A
N666        C670   1.359       .  A
N667        C668   1.337       .  A
C668        C669   1.377       .  A
C668        H671   1.081       .  S
C669       C2173   1.494       .  S
C669        C670   1.401       .  A
C670        H672   1.082       .  S
N673        N674   1.315       .  A
N673        C677   1.344       .  A
N673       Cu681   2.054       .  S
N674        C675   1.342       .  A
N674       Cu680   2.057       .  S
C675        C676   1.387       .  A
C675        H678   1.082       .  S
C676       C2193   1.481       .  S
C676        C677   1.388       .  A
C677        H679   1.081       .  S
Cu680       N683   2.057       .  S
Cu681       N691   2.054       .  S
Cu682       N684   2.150       .  S
Cu682       N690   2.150       .  S
N683        N684   1.324       .  A
N683        C687   1.335       .  A
N684        C685   1.365       .  A
C685        C686   1.403       .  A
C685        H688   1.082       .  S
C686        C687   1.376       .  A
C687        H689   1.082       .  S
N690        N691   1.326       .  A
N690        C694   1.362       .  A
N691        C692   1.336       .  A
C692        C693   1.374       .  A
C692        H695   1.082       .  S
C693       C2153   1.492       .  S
C693        C694   1.401       .  A
C694        H696   1.082       .  S
N697        N698   1.314       .  A
N697        C701   1.341       .  A
N697       Cu705   2.044       .  S
N698        C699   1.343       .  A
N698       Cu704   2.058       .  S
C699        C700   1.390       .  A
C699        H702   1.080       .  S
C700       C2133   1.484       .  S
C700        C701   1.388       .  A
C701        H703   1.081       .  S
Cu704       N707   2.059       .  S
Cu705       N715   2.043       .  S
Cu706       N708   2.146       .  S
Cu706       N714   2.145       .  S
N707        N708   1.325       .  A
N707        C711   1.337       .  A
N708        C709   1.363       .  A
C709        C710   1.400       .  A
C709        H712   1.082       .  S
C710        C711   1.376       .  A
C711        H713   1.082       .  S
N714        N715   1.324       .  A
N714        C718   1.361       .  A
N715        C716   1.335       .  A
C716        C717   1.375       .  A
C716        H719   1.082       .  S
C717       C2122   1.494       .  S
C717        C718   1.403       .  A
C718        H720   1.082       .  S
N721        N722   1.316       .  A
N721        C725   1.343       .  A
N721       Cu729   2.056       .  S
N722        C723   1.343       .  A
N722       Cu728   2.058       .  S
C723        C724   1.386       .  A
C723        H726   1.082       .  S
C724       C2142   1.478       .  S
C724        C725   1.386       .  A
C725        H727   1.081       .  S
Cu728       N731   2.059       .  S
Cu729       N739   2.057       .  S
Cu730       N732   2.154       .  S
Cu730       N738   2.155       .  S
N731        N732   1.324       .  A
N731        C735   1.337       .  A
N732        C733   1.365       .  A
C733        C734   1.403       .  A
C733        H736   1.082       .  S
C734        C735   1.377       .  A
C735        H737   1.082       .  S
N738        N739   1.325       .  A
N738        C742   1.361       .  A
N739        C740   1.340       .  A
C740        C741   1.379       .  A
C740        H743   1.082       .  S
C741       C2093   1.502       .  S
C741        C742   1.404       .  A
C742        H744   1.081       .  S
N745        N746   1.317       .  A
N745        C749   1.345       .  A
N745       Cu753   2.073       .  S
N746        C747   1.345       .  A
N746       Cu752   2.061       .  S
C747        C748   1.387       .  A
C747        H750   1.082       .  S
C748       C2082   1.484       .  S
C748        C749   1.389       .  A
C749        H751   1.082       .  S
Cu752       N755   2.060       .  S
Cu753       N763   2.074       .  S
Cu754       N756   2.138       .  S
Cu754       N762   2.140       .  S
N755        N756   1.324       .  A
N755        C759   1.337       .  A
N756        C757   1.363       .  A
C757        C758   1.400       .  A
C757        H760   1.082       .  S
C758        C759   1.377       .  A
C759        H761   1.082       .  S
N762        N763   1.326       .  A
N762        C766   1.358       .  A
N763        C764   1.343       .  A
C764        C765   1.379       .  A
C764        H767   1.082       .  S
C765       C2053   1.493       .  S
C765        C766   1.397       .  A
C766        H768   1.082       .  S
N769        N770   1.316       .  A
N769        C773   1.344       .  A
N769       Cu777   2.066       .  S
N770        C771   1.345       .  A
N770       Cu776   2.062       .  S
C771        C772   1.389       .  A
C771        H774   1.081       .  S
C772       C2073   1.488       .  S
C772        C773   1.390       .  A
C773        H775   1.082       .  S
Cu776       N779   2.061       .  S
Cu777       N787   2.068       .  S
Cu778       N780   2.147       .  S
Cu778       N786   2.149       .  S
N779        N780   1.324       .  A
N779        C783   1.336       .  A
N780        C781   1.365       .  A
C781        C782   1.403       .  A
C781        H784   1.082       .  S
C782        C783   1.377       .  A
C783        H785   1.082       .  S
N786        N787   1.326       .  A
N786        C790   1.359       .  A
N787        C788   1.342       .  A
C788        C789   1.379       .  A
C788        H791   1.082       .  S
C789       C2042   1.499       .  S
C789        C790   1.401       .  A
C790        H792   1.082       .  S
N793        N794   1.316       .  A
N793        C797   1.343       .  A
N793       Cu801   2.049       .  S
N794        C795   1.341       .  A
N794       Cu800   2.055       .  S
C795        C796   1.387       .  A
C795        H798   1.081       .  S
C796       C2022   1.478       .  S
C796        C797   1.386       .  A
C797        H799   1.082       .  S
Cu800       N803   2.055   1_545  S
Cu801       N811   2.050       .  S
Cu802       N804   2.142   1_545  S
Cu802       N810   2.143       .  S
N803        N804   1.324       .  A
N803        C807   1.337       .  A
N804        C805   1.362       .  A
C805        C806   1.400       .  A
C805        H808   1.082       .  S
C806        C807   1.377       .  A
C807        H809   1.082       .  S
N810        N811   1.324       .  A
N810        C814   1.359       .  A
N811        C812   1.338       .  A
C812        C813   1.378       .  A
C812        H815   1.081       .  S
C813       C2002   1.497       .  S
C813        C814   1.402       .  A
C814        H816   1.082       .  S
N817        N818   1.316       .  A
N817        C821   1.343       .  A
N817       Cu825   2.058       .  S
N818        C819   1.341       .  A
N818       Cu824   2.053       .  S
C819        C820   1.387       .  A
C819        H822   1.080       .  S
C820       C2013   1.482       .  S
C820        C821   1.389       .  A
C821        H823   1.081       .  S
Cu824       N827   2.051       .  S
Cu825       N835   2.059       .  S
Cu826       N828   2.129   1_545  S
Cu826       N834   2.131       .  S
N827        N828   1.322   1_545  A
N827        C831   1.336   1_545  A
N828        C829   1.361       .  A
C829        C830   1.399       .  A
C829        H832   1.082       .  S
C830        C831   1.377       .  A
C831        H833   1.082       .  S
N834        N835   1.325       .  A
N834        C838   1.356       .  A
N835        C836   1.341       .  A
C836        C837   1.378       .  A
C836        H839   1.082       .  S
C837       C1982   1.489       .  S
C837        C838   1.396       .  A
C838        H840   1.082       .  S
N841        N842   1.317   1_545  A
N841        C845   1.345       .  A
N841       Cu849   2.069       .  S
N842        C843   1.343       .  A
N842       Cu848   2.059       .  S
C843        C844   1.387       .  A
C843        H846   1.082       .  S
C844       C1962   1.486       .  S
C844        C845   1.390   1_565  A
C845        H847   1.081       .  S
Cu848       N851   2.058       .  S
Cu849       N859   2.069       .  S
Cu850       N852   2.144   1_545  S
Cu850       N858   2.146       .  S
N851        N852   1.324       .  A
N851        C855   1.336       .  A
N852        C853   1.364       .  A
C853        C854   1.401       .  A
C853        H856   1.082       .  S
C854        C855   1.378       .  A
C855        H857   1.082       .  S
N858        N859   1.326       .  A
N858        C862   1.359       .  A
N859        C860   1.343       .  A
C860        C861   1.378       .  A
C860        H863   1.082       .  S
C861       C1942   1.494       .  S
C861        C862   1.399       .  A
C862        H864   1.082       .  S
N865        N866   1.316   1_545  A
N865        C869   1.342       .  A
N865       Cu873   2.056       .  S
N866        C867   1.345       .  A
N866       Cu872   2.062       .  S
C867        C868   1.390       .  A
C867        H870   1.081       .  S
C868       C1953   1.485       .  S
C868        C869   1.388   1_565  A
C869        H871   1.082       .  S
Cu872       N875   2.063       .  S
Cu873       N883   2.057       .  S
Cu874       N876   2.143   1_545  S
Cu874       N882   2.143       .  S
N875        N876   1.325       .  A
N875        C879   1.338       .  A
N876        C877   1.363       .  A
C877        C878   1.400       .  A
C877        H880   1.082       .  S
C878        C879   1.376       .  A
C879        H881   1.082       .  S
N882        N883   1.324       .  A
N882        C886   1.359       .  A
N883        C884   1.339       .  A
C884        C885   1.379       .  A
C884        H887   1.081       .  S
C885       C1913   1.497       .  S
C885        C886   1.401       .  A
C886        H888   1.082       .  S
N889        N890   1.315       .  A
N889        C893   1.344       .  A
N889       Cu897   2.059       .  S
N890        C891   1.342       .  A
N890       Cu896   2.056       .  S
C891        C892   1.388       .  A
C891        H894   1.081       .  S
C892       C1902   1.484       .  S
C892        C893   1.390       .  A
C893        H895   1.081       .  S
Cu896       N899   2.056       .  S
Cu897       N907   2.061       .  S
Cu898       N900   2.136       .  S
Cu898       N906   2.138       .  S
N899        N900   1.324       .  A
N899        C903   1.335       .  A
N900        C901   1.363       .  A
C901        C902   1.400       .  A
C901        H904   1.082       .  S
C902        C903   1.377       .  A
C903        H905   1.082       .  S
N906        N907   1.325       .  A
N906        C910   1.357       .  A
N907        C908   1.340       .  A
C908        C909   1.380       .  A
C908        H911   1.082       .  S
C909       C1873   1.498       .  S
C909        C910   1.400       .  A
C910        H912   1.081       .  S
N913        N914   1.316       .  A
N913        C917   1.343       .  A
N913       Cu921   2.058       .  S
N914        C915   1.343       .  A
N914       Cu920   2.053       .  S
C915        C916   1.387       .  A
C915        H918   1.081       .  S
C916       C1893   1.480       .  S
C916        C917   1.387       .  A
C917        H919   1.082       .  S
Cu920       N923   2.052       .  S
Cu921       N931   2.060       .  S
Cu922       N924   2.149       .  S
Cu922       N930   2.150       .  S
N923        N924   1.324       .  A
N923        C927   1.336       .  A
N924        C925   1.364       .  A
C925        C926   1.402       .  A
C925        H928   1.082       .  S
C926        C927   1.375       .  A
C927        H929   1.082       .  S
N930        N931   1.326       .  A
N930        C934   1.361       .  A
N931        C932   1.339       .  A
C932        C933   1.377       .  A
C932        H935   1.082       .  S
C933       C1862   1.494       .  S
C933        C934   1.400       .  A
C934        H936   1.082       .  S
N937        N938   1.316       .  A
N937        C941   1.343       .  A
N937       Cu945   2.064       .  S
N938        C939   1.345       .  A
N938       Cu944   2.060       .  S
C939        C940   1.388       .  A
C939        H942   1.081       .  S
C940       C1833   1.484       .  S
C940        C941   1.388       .  A
C941        H943   1.082       .  S
Cu944       N947   2.059       .  S
Cu945       N955   2.065       .  S
Cu946       N948   2.153       .  S
Cu946       N954   2.154       .  S
N947        N948   1.325       .  A
N947        C951   1.337       .  A
N948        C949   1.365       .  A
C949        C950   1.403       .  A
C949        H952   1.082       .  S
C950        C951   1.376       .  A
C951        H953   1.082       .  S
N954        N955   1.325       .  A
N954        C958   1.361       .  A
N955        C956   1.340       .  A
C956        C957   1.381       .  A
C956        H959   1.081       .  S
C957       C1813   1.505       .  S
C957        C958   1.404       .  A
C958        H960   1.082       .  S
N961        N962   1.316       .  A
N961        C965   1.344       .  A
N961       Cu969   2.060       .  S
N962        C963   1.344       .  A
N962       Cu968   2.064       .  S
C963        C964   1.389       .  A
C963        H966   1.082       .  S
C964       C1842   1.486       .  S
C964        C965   1.389       .  A
C965        H967   1.081       .  S
Cu968       N971   2.064       .  S
Cu969       N979   2.061       .  S
Cu970       N972   2.136       .  S
Cu970       N978   2.137       .  S
N971        N972   1.325       .  A
N971        C975   1.337       .  A
N972        C973   1.362       .  A
C973        C974   1.399       .  A
C973        H976   1.082       .  S
C974        C975   1.377       .  A
C975        H977   1.082       .  S
N978        N979   1.325       .  A
N978        C982   1.359       .  A
N979        C980   1.338       .  A
C980        C981   1.377       .  A
C980        H983   1.082       .  S
C981       C1802   1.492       .  S
C981        C982   1.398       .  A
C982        H984   1.082       .  S
N985        N986   1.316       .  A
N985        C989   1.344       .  A
N985       Cu993   2.055       .  S
N986        C987   1.344       .  A
N986       Cu992   2.062       .  S
C987        C988   1.388       .  A
C987        H990   1.081       .  S
C988       C1773   1.482       .  S
C988        C989   1.387       .  A
C989        H991   1.082       .  S
Cu992       N995   2.063       .  S
Cu993      N1003   2.057       .  S
Cu994       N996   2.155       .  S
Cu994      N1002   2.156       .  S
N995        N996   1.325       .  A
N995        C999   1.338   1_545  A
N996        C997   1.365   1_545  A
C997        C998   1.403       .  A
C997       H1000   1.082       .  S
C998        C999   1.377       .  A
C999       H1001   1.082       .  S
N1002      N1003   1.325       .  A
N1002      C1006   1.361       .  A
N1003      C1004   1.339       .  A
C1004      C1005   1.378       .  A
C1004      H1007   1.082       .  S
C1005      C1753   1.500       .  S
C1005      C1006   1.403       .  A
C1006      H1008   1.081       .  S
N1009      N1010   1.318       .  A
N1009      C1013   1.343       .  A
N1009     Cu1017   2.061       .  S
N1010      C1011   1.345       .  A
N1010     Cu1016   2.066       .  S
C1011      C1012   1.387       .  A
C1011      H1014   1.082       .  S
C1012      C1782   1.479       .  S
C1012      C1013   1.385       .  A
C1013      H1015   1.082       .  S
Cu1016     N1019   2.067       .  S
Cu1017     N1027   2.062       .  S
Cu1018     N1020   2.133       .  S
Cu1018     N1026   2.134       .  S
N1019      N1020   1.325       .  A
N1019      C1023   1.338   1_545  A
N1020      C1021   1.361   1_545  A
C1021      C1022   1.398       .  A
C1021      H1024   1.082       .  S
C1022      C1023   1.378       .  A
C1023      H1025   1.082       .  S
N1026      N1027   1.324       .  A
N1026      C1030   1.356       .  A
N1027      C1028   1.342       .  A
C1028      C1029   1.380       .  A
C1028      H1031   1.082       .  S
C1029      C1733   1.493       .  S
C1029      C1030   1.398       .  A
C1030      H1032   1.082       .  S
N1033      N1034   1.315       .  A
N1033      C1037   1.343       .  A
N1033     Cu1041   2.052       .  S
N1034      C1035   1.344       .  A
N1034     Cu1040   2.062       .  S
C1035      C1036   1.389       .  A
C1035      H1038   1.081       .  S
C1036      C1713   1.483       .  S
C1036      C1037   1.388       .  A
C1037      H1039   1.082       .  S
Cu1040     N1043   2.063       .  S
Cu1041     N1051   2.053       .  S
Cu1042     N1044   2.157       .  S
Cu1042     N1050   2.157       .  S
N1043      N1044   1.325       .  A
N1043      C1047   1.338       .  A
N1044      C1045   1.365       .  A
C1045      C1046   1.403       .  A
C1045      H1048   1.082       .  S
C1046      C1047   1.377       .  A
C1047      H1049   1.082       .  S
N1050      N1051   1.326       .  A
N1050      C1054   1.362       .  A
N1051      C1052   1.338       .  A
C1052      C1053   1.376       .  A
C1052      H1055   1.082       .  S
C1053      C1693   1.496       .  S
C1053      C1054   1.403       .  A
C1054      H1056   1.082       .  S
N1057      N1058   1.317       .  A
N1057      C1061   1.345       .  A
N1057     Cu1065   2.060       .  S
N1058      C1059   1.343       .  A
N1058     Cu1064   2.060       .  S
C1059      C1060   1.386       .  A
C1059      H1062   1.082       .  S
C1060      C1722   1.478       .  S
C1060      C1061   1.386       .  A
C1061      H1063   1.082       .  S
Cu1064     N1067   2.060       .  S
Cu1065     N1075   2.060       .  S
Cu1066     N1068   2.148       .  S
Cu1066     N1074   2.149       .  S
N1067      N1068   1.324       .  A
N1067      C1071   1.337       .  A
N1068      C1069   1.364       .  A
C1069      C1070   1.401       .  A
C1069      H1072   1.082       .  S
C1070      C1071   1.377       .  A
C1071      H1073   1.082       .  S
N1074      N1075   1.325       .  A
N1074      C1078   1.360       .  A
N1075      C1076   1.339       .  A
C1076      C1077   1.380       .  A
C1076      H1079   1.082       .  S
C1077      C1673   1.502       .  S
C1077      C1078   1.403       .  A
C1078      H1080   1.081       .  S
N1081      N1082   1.317       .  A
N1081      C1085   1.343       .  A
N1081     Cu1089   2.058       .  S
N1082      C1083   1.346       .  A
N1082     Cu1088   2.066       .  S
C1083      C1084   1.388       .  A
C1083      H1086   1.082       .  S
C1084      C1653   1.480       .  S
C1084      C1085   1.385       .  A
C1085      H1087   1.082       .  S
Cu1088     N1091   2.065       .  S
Cu1089     N1099   2.059       .  S
Cu1090     N1092   2.140       .  S
Cu1090     N1098   2.141       .  S
N1091      N1092   1.325       .  A
N1091      C1095   1.337       .  A
N1092      C1093   1.363       .  A
C1093      C1094   1.400       .  A
C1093      H1096   1.082       .  S
C1094      C1095   1.378       .  A
C1095      H1097   1.082       .  S
N1098      N1099   1.324       .  A
N1098      C1102   1.358       .  A
N1099      C1100   1.340       .  A
C1100      C1101   1.381       .  A
C1100      H1103   1.081       .  S
C1101      C1633   1.501       .  S
C1101      C1102   1.402       .  A
C1102      H1104   1.081       .  S
N1105      N1106   1.315       .  A
N1105      C1109   1.344       .  A
N1105     Cu1113   2.049       .  S
N1106      C1107   1.344       .  A
N1106     Cu1112   2.067       .  S
C1107      C1108   1.390       .  A
C1107      H1110   1.082       .  S
C1108      C1662   1.485       .  S
C1108      C1109   1.388       .  A
C1109      H1111   1.081       .  S
Cu1112     N1115   2.068       .  S
Cu1113     N1123   2.050       .  S
Cu1114     N1116   2.160       .  S
Cu1114     N1122   2.160       .  S
N1115      N1116   1.326       .  A
N1115      C1119   1.338       .  A
N1116      C1117   1.366       .  A
C1117      C1118   1.403       .  A
C1117      H1120   1.082       .  S
C1118      C1119   1.378       .  A
C1119      H1121   1.082       .  S
N1122      N1123   1.325       .  A
N1122      C1126   1.363       .  A
N1123      C1124   1.337       .  A
C1124      C1125   1.376       .  A
C1124      H1127   1.082       .  S
C1125      C1613   1.500       .  S
C1125      C1126   1.405       .  A
C1126      H1128   1.082       .  S
N1129      N1130   1.315       .  A
N1129      C1133   1.344       .  A
N1129     Cu1137   2.061       .  S
N1130      C1131   1.342       .  A
N1130     Cu1136   2.051       .  S
C1131      C1132   1.386       .  A
C1131      H1134   1.081       .  S
C1132      C1593   1.479       .  S
C1132      C1133   1.388       .  A
C1133      H1135   1.082       .  S
Cu1136     N1139   2.051       .  S
Cu1137     N1147   2.063       .  S
Cu1138     N1140   2.151       .  S
Cu1138     N1146   2.152       .  S
N1139      N1140   1.324       .  A
N1139      C1143   1.336       .  A
N1140      C1141   1.364       .  A
C1141      C1142   1.402       .  A
C1141      H1144   1.082       .  S
C1142      C1143   1.375       .  A
C1143      H1145   1.082       .  S
N1146      N1147   1.325       .  A
N1146      C1150   1.361       .  A
N1147      C1148   1.339       .  A
C1148      C1149   1.379       .  A
C1148      H1151   1.082       .  S
C1149      C1573   1.501       .  S
C1149      C1150   1.403       .  A
C1150      H1152   1.082       .  S
N1153      N1154   1.315       .  A
N1153      C1157   1.343       .  A
N1153     Cu1161   2.055       .  S
N1154      C1155   1.342       .  A
N1154     Cu1160   2.055       .  S
C1155      C1156   1.388       .  A
C1155      H1158   1.082       .  S
C1156      C1602   1.481       .  S
C1156      C1157   1.388       .  A
C1157      H1159   1.081       .  S
Cu1160     N1163   2.055       .  S
Cu1161     N1171   2.055       .  S
Cu1162     N1164   2.146       .  S
Cu1162     N1170   2.148       .  S
N1163      N1164   1.324       .  A
N1163      C1167   1.336       .  A
N1164      C1165   1.364       .  A
C1165      C1166   1.402       .  A
C1165      H1168   1.082       .  S
C1166      C1167   1.376       .  A
C1167      H1169   1.082       .  S
N1170      N1171   1.326       .  A
N1170      C1174   1.359       .  A
N1171      C1172   1.340       .  A
C1172      C1173   1.373       .  A
C1172      H1175   1.082       .  S
C1173      C1553   1.487       .  S
C1173      C1174   1.398       .  A
C1174      H1176   1.082       .  S
N1177      N1178   1.316       .  A
N1177      C1181   1.342       .  A
N1177     Cu1185   2.052       .  S
N1178      C1179   1.343       .  A
N1178     Cu1184   2.058       .  S
C1179      C1180   1.387       .  A
C1179      H1182   1.082       .  S
C1180      C1533   1.480       .  S
C1180      C1181   1.387       .  A
C1181      H1183   1.081       .  S
Cu1184     N1187   2.058       .  S
Cu1185     N1195   2.053       .  S
Cu1186     N1188   2.133       .  S
Cu1186     N1194   2.133       .  S
N1187      N1188   1.324       .  A
N1187      C1191   1.337       .  A
N1188      C1189   1.361       .  A
C1189      C1190   1.398       .  A
C1189      H1192   1.082       .  S
C1190      C1191   1.377       .  A
C1191      H1193   1.082       .  S
N1194      N1195   1.324       .  A
N1194      C1198   1.357       .  A
N1195      C1196   1.339       .  A
C1196      C1197   1.379       .  A
C1196      H1199   1.082       .  S
C1197      C1513   1.493       .  S
C1197      C1198   1.399       .  A
C1198      H1200   1.081       .  S
N1201      N1202   1.316       .  A
N1201      C1205   1.343       .  A
N1201     Cu1209   2.054       .  S
N1202      C1203   1.341       .  A
N1202     Cu1208   2.053       .  S
C1203      C1204   1.386       .  A
C1203      H1206   1.081       .  S
C1204      C1542   1.477       .  S
C1204      C1205   1.386       .  A
C1205      H1207   1.082       .  S
Cu1208     N1211   2.053       .  S
Cu1209     N1219   2.055       .  S
Cu1210     N1212   2.142       .  S
Cu1210     N1218   2.144       .  S
N1211      N1212   1.323       .  A
N1211      C1215   1.337       .  A
N1212      C1213   1.363       .  A
C1213      C1214   1.401       .  A
C1213      H1216   1.082       .  S
C1214      C1215   1.377       .  A
C1215      H1217   1.082       .  S
N1218      N1219   1.326       .  A
N1218      C1222   1.359       .  A
N1219      C1220   1.339       .  A
C1220      C1221   1.375       .  A
C1220      H1223   1.082       .  S
C1221      C1502   1.489       .  S
C1221      C1222   1.399       .  A
C1222      H1224   1.082       .  S
C1225      C2702   1.497       .  S
C1225      C1226   1.415       .  A
C1225      C1230   1.417       .  A
C1226      C1682   1.494       .  S
C1226      C1227   1.414       .  A
C1227      C2422   1.491       .  S
C1227      C1228   1.410       .  A
C1228      C1522   1.490       .  S
C1228      C1229   1.410       .  A
C1229      C2302   1.492       .  S
C1229      C1230   1.415       .  A
C1230      C1473   1.501       .  S
C1231      C1493   1.490       .  S
C1231      C1232   1.414       .  A
C1231      C1236   1.409       .  A
C1232      C2782   1.498       .  S
C1232      C1233   1.415       .  A
C1233      C1562   1.493       .  S
C1233      C1234   1.416       .  A
C1234      C2722   1.498       .  S
C1234      C1235   1.418       .  A
C1235      C1622   1.501       .  S
C1235      C1236   1.413       .  A
C1236      C2662   1.492       .  S
C1237      C2642   1.504       .  S
C1237      C1238   1.413       .  A
C1237      C1242   1.424       .  A
C1238      C1853   1.495       .  S
C1238      C1239   1.411       .  A
C1239      C2542   1.492       .  S
C1239      C1240   1.412       .  A
C1240      C1582   1.502       .  S
C1240      C1241   1.423       .  A
C1241      C2602   1.528       .  S
C1241      C1242   1.424       .  A
C1242      C1793   1.530       .  S
C1243      C1922   1.496       .  S
C1243      C1244   1.419       .  A
C1243      C1248   1.417       .  A
C1244      C2762   1.503       .  S
C1244      C1245   1.416       .  A
C1245      C1742   1.495       .  S
C1245      C1246   1.412       .  A
C1246      C2482   1.487       .  S
C1246      C1247   1.413       .  A
C1247      C1642   1.497       .  S
C1247      C1248   1.413       .  A
C1248      C2353   1.493       .  S
N1249      N1250   1.315       .  A
N1249      C1253   1.342       .  A
N1249     Cu1257   2.059       .  S
N1250      C1251   1.344       .  A
N1250     Cu1256   2.054       .  S
C1251      C1252   1.388       .  A
C1251      H1254   1.081       .  S
C1252      C1462   1.482       .  S
C1252      C1253   1.388       .  A
C1253      H1255   1.082       .  S
Cu1256     N1259   2.054       .  S
Cu1257     N1267   2.060       .  S
Cu1258     N1260   2.156       .  S
Cu1258     N1266   2.157       .  S
N1259      N1260   1.325       .  A
N1259      C1263   1.336       .  A
N1260      C1261   1.365       .  A
C1261      C1262   1.404       .  A
C1261      H1264   1.082       .  S
C1262      C1263   1.375       .  A
C1263      H1265   1.082       .  S
N1266      N1267   1.325       .  A
N1266      C1270   1.360       .  A
N1267      C1268   1.341       .  A
C1268      C1269   1.379       .  A
C1268      H1271   1.081       .  S
C1269      C1433   1.501       .  S
C1269      C1270   1.403       .  A
C1270      H1272   1.082       .  S
N1273      N1274   1.316       .  A
N1273      C1277   1.343       .  A
N1273     Cu1281   2.062       .  S
N1274      C1275   1.343       .  A
N1274     Cu1280   2.056       .  S
C1275      C1276   1.387       .  A
C1275      H1278   1.082       .  S
C1276      C1453   1.483       .  S
C1276      C1277   1.389       .  A
C1277      H1279   1.081       .  S
Cu1280     N1283   2.055       .  S
Cu1281     N1291   2.062       .  S
Cu1282     N1284   2.135       .  S
Cu1282     N1290   2.136       .  S
N1283      N1284   1.323       .  A
N1283      C1287   1.336       .  A
N1284      C1285   1.362       .  A
C1285      C1286   1.400       .  A
C1285      H1288   1.082       .  S
C1286      C1287   1.376       .  A
C1287      H1289   1.082       .  S
N1290      N1291   1.324       .  A
N1290      C1294   1.357       .  A
N1291      C1292   1.340       .  A
C1292      C1293   1.384       .  A
C1292      H1295   1.079       .  S
C1293      C1482   1.503       .  S
C1293      C1294   1.401       .  A
C1294      H1296   1.081       .  S
C1297      C1442   1.502       .  S
C1297      C1298   1.414       .  A
C1297      C1302   1.417       .  A
C1298      C2453   1.498       .  S
C1298      C1299   1.413       .  A
C1299      C1413   1.491       .  S
C1299      C1300   1.414       .  A
C1300      C2402   1.496       .  S
C1300      C1301   1.413       .  A
C1301      C1933   1.499       .  S
C1301      C1302   1.416       .  A
C1302      C2113   1.493       .  S
C1303      C1702   1.494       .  S
C1303      C1304   1.416       .  A
C1303      C1308   1.414       .  A
C1304      C2582   1.493       .  S
C1304      C1305   1.412       .  A
C1305      C2033   1.492       .  S
C1305      C1306   1.413       .  A
C1306      C2273   1.493       .  S
C1306      C1307   1.414       .  A
C1307      C1882   1.497       .  S
C1307      C1308   1.413       .  A
C1308      C2242   1.493       .  S
C1309      C2522   1.499       .  S
C1309      C1310   1.415       .  A
C1309      C1314   1.414       .  A
C1310      C1973   1.490       .  S
C1310      C1311   1.416       .  A
C1311      C2342   1.494       .  S
C1311      C1312   1.414       .  A
C1312      C1822   1.498       .  S
C1312      C1313   1.411       .  A
C1313      C2182   1.491       .  S
C1313      C1314   1.412       .  A
C1314      C1762   1.489       .  S
N1315      N1316   1.315   1_545  A
N1315      C1319   1.340       .  A
N1315     Cu1323   2.046       .  S
N1316      C1317   1.343       .  A
N1316     Cu1322   2.048       .  S
C1317      C1318   1.385       .  A
C1317      H1320   1.082       .  S
C1318      C1402   1.471       .  S
C1318      C1319   1.384   1_565  A
C1319      H1321   1.082       .  S
Cu1322     N1325   2.047       .  S
Cu1323     N1333   2.047       .  S
Cu1324     N1326   2.145   1_545  S
Cu1324     N1332   2.146       .  S
N1325      N1326   1.325       .  A
N1325      C1329   1.335       .  A
N1326      C1327   1.362       .  A
C1327      C1328   1.400       .  A
C1327      H1330   1.082       .  S
C1328      C1329   1.373       .  A
C1329      H1331   1.083       .  S
N1332      N1333   1.324       .  A
N1332      C1336   1.360       .  A
N1333      C1334   1.338       .  A
C1334      C1335   1.376       .  A
C1334      H1337   1.082       .  S
C1335      C1382   1.495       .  S
C1335      C1336   1.402       .  A
C1336      H1338   1.082       .  S
N1339      N1340   1.314   1_545  A
N1339      C1343   1.341       .  A
N1339     Cu1347   2.041       .  S
N1340      C1341   1.341       .  A
N1340     Cu1346   2.051       .  S
C1341      C1342   1.387       .  A
C1341      H1344   1.082       .  S
C1342      C1393   1.477       .  S
C1342      C1343   1.386   1_565  A
C1343      H1345   1.081       .  S
Cu1346     N1349   2.052       .  S
Cu1347     N1357   2.042       .  S
Cu1348     N1350   2.141   1_545  S
Cu1348     N1356   2.142       .  S
N1349      N1350   1.325       .  A
N1349      C1353   1.335       .  A
N1350      C1351   1.362       .  A
C1351      C1352   1.400       .  A
C1351      H1354   1.082       .  S
C1352      C1353   1.374       .  A
C1353      H1355   1.082       .  S
N1356      N1357   1.324       .  A
N1356      C1360   1.359       .  A
N1357      C1358   1.335       .  A
C1358      C1359   1.376       .  A
C1358      H1361   1.081       .  S
C1359      C1422   1.493       .  S
C1359      C1360   1.402       .  A
C1360      H1362   1.082       .  S
C1363      C2102   1.498       .  S
C1363      C1364   1.414       .  A
C1363      C1368   1.415       .  A
C1364      C1993   1.487       .  S
C1364      C1365   1.412       .  A
C1365      C2222   1.491       .  S
C1365      C1366   1.409       .  A
C1366      C1373   1.489       .  S
C1366      C1367   1.409       .  A
C1367      C2162   1.488       .  S
C1367      C1368   1.412       .  A
C1368      C2062   1.492       .  S
C1369      C1370   1.415       .  A
C1369      C1374   1.410       .  A
C1369      H1379   1.083       .  S
C1370      C1375   1.505       .  S
C1370      C1371   1.409       .  A
C1371      C1372   1.399       .  A
C1371      F1376   1.357       .  S
C1372      C1373   1.404       .  A
C1372      H1377   1.084       .  S
C1373      C1374   1.404       .  A
C1374      F1378   1.357       .  S
C1375      C1380   1.408       .  A
C1375      C1384   1.414       .  A
C1380      C1381   1.401       .  A
C1380      F1385   1.357       .  S
C1381      C1382   1.409       .  A
C1381      H1386   1.083       .  S
C1382      C1383   1.405       .  A
C1383      C1384   1.408       .  A
C1383      F1387   1.357       .  S
C1384      H1388   1.083       .  S
C1389      C1390   1.401   1_545  A
C1389      C1394   1.394       .  A
C1389      H1399   1.084       .  S
C1390      C1395   1.471       .  S
C1390      C1391   1.403       .  A
C1391      C1392   1.395       .  A
C1391      F1396   1.358       .  S
C1392      C1393   1.406       .  A
C1392      H1397   1.082       .  S
C1393      C1394   1.409   1_565  A
C1394      F1398   1.356       .  S
C1395      C1400   1.405       .  A
C1395      C1404   1.401   1_565  A
C1400      C1401   1.395       .  A
C1400      F1405   1.358       .  S
C1401      C1402   1.404       .  A
C1401      H1406   1.083       .  S
C1402      C1403   1.406   1_565  A
C1403      C1404   1.393       .  A
C1403      F1407   1.357       .  S
C1404      H1408   1.083       .  S
C1409      C1410   1.402       .  A
C1409      C1414   1.398       .  A
C1409      H1419   1.083       .  S
C1410      C1415   1.491       .  S
C1410      C1411   1.412       .  A
C1411      C1412   1.405       .  A
C1411      F1416   1.357       .  S
C1412      C1413   1.404       .  A
C1412      H1417   1.082       .  S
C1413      C1414   1.411       .  A
C1414      F1418   1.358       .  S
C1415      C1420   1.412       .  A
C1415      C1424   1.400       .  A
C1420      C1421   1.408       .  A
C1420      F1425   1.357       .  S
C1421      C1422   1.405       .  A
C1421      H1426   1.083       .  S
C1422      C1423   1.414       .  A
C1423      C1424   1.397       .  A
C1423      F1427   1.357       .  S
C1424      H1428   1.083       .  S
C1429      C1430   1.404       .  A
C1429      C1434   1.404       .  A
C1429      H1439   1.083       .  S
C1430      C1435   1.502       .  S
C1430      C1431   1.413       .  A
C1431      C1432   1.409       .  A
C1431      F1436   1.357       .  S
C1432      C1433   1.405       .  A
C1432      H1437   1.083       .  S
C1433      C1434   1.415       .  A
C1434      F1438   1.357       .  S
C1435      C1440   1.413       .  A
C1435      C1444   1.404       .  A
C1440      C1441   1.409       .  A
C1440      F1445   1.357       .  S
C1441      C1442   1.407       .  A
C1441      H1446   1.082       .  S
C1442      C1443   1.413       .  A
C1443      C1444   1.401       .  A
C1443      F1447   1.357       .  S
C1444      H1448   1.083       .  S
C1449      C1450   1.401       .  A
C1449      C1454   1.395       .  A
C1449      H1459   1.084       .  S
C1450      C1455   1.474       .  S
C1450      C1451   1.402       .  A
C1451      C1452   1.399       .  A
C1451      F1456   1.357       .  S
C1452      C1453   1.408       .  A
C1452      H1457   1.082       .  S
C1453      C1454   1.409       .  A
C1454      F1458   1.356       .  S
C1455      C1460   1.402       .  A
C1455      C1464   1.401       .  A
C1460      C1461   1.395       .  A
C1460      F1465   1.357       .  S
C1461      C1462   1.406       .  A
C1461      H1466   1.082       .  S
C1462      C1463   1.411       .  A
C1463      C1464   1.399       .  A
C1463      F1467   1.356       .  S
C1464      H1468   1.083       .  S
C1469      C1470   1.404       .  A
C1469      C1474   1.403       .  A
C1469      H1479   1.083       .  S
C1470      C1475   1.500       .  S
C1470      C1471   1.412       .  A
C1471      C1472   1.405       .  A
C1471      F1476   1.357       .  S
C1472      C1473   1.407       .  A
C1472      H1477   1.081       .  S
C1473      C1474   1.414       .  A
C1474      F1478   1.357       .  S
C1475      C1480   1.412       .  A
C1475      C1484   1.402       .  A
C1480      C1481   1.409       .  A
C1480      F1485   1.357       .  S
C1481      C1482   1.408       .  A
C1481      H1486   1.082       .  S
C1482      C1483   1.416       .  A
C1483      C1484   1.400       .  A
C1483      F1487   1.355       .  S
C1484      H1488   1.083       .  S
C1489      C1490   1.413       .  A
C1489      C1494   1.407       .  A
C1489      H1499   1.082       .  S
C1490      C1495   1.502       .  S
C1490      C1491   1.408       .  A
C1491      C1492   1.400       .  A
C1491      F1496   1.357       .  S
C1492      C1493   1.406       .  A
C1492      H1497   1.083       .  S
C1493      C1494   1.404       .  A
C1494      F1498   1.356       .  S
C1495      C1500   1.409       .  A
C1495      C1504   1.413       .  A
C1500      C1501   1.401       .  A
C1500      F1505   1.357       .  S
C1501      C1502   1.406       .  A
C1501      H1506   1.083       .  S
C1502      C1503   1.405       .  A
C1503      C1504   1.408       .  A
C1503      F1507   1.357       .  S
C1504      H1508   1.082       .  S
C1509      C1510   1.412       .  A
C1509      C1514   1.407       .  A
C1509      H1519   1.083       .  S
C1510      C1515   1.500       .  S
C1510      C1511   1.407       .  A
C1511      C1512   1.400       .  A
C1511      F1516   1.357       .  S
C1512      C1513   1.409       .  A
C1512      H1517   1.083       .  S
C1513      C1514   1.406       .  A
C1514      F1518   1.357       .  S
C1515      C1520   1.408       .  A
C1515      C1524   1.413       .  A
C1520      C1521   1.400       .  A
C1520      F1525   1.357       .  S
C1521      C1522   1.406       .  A
C1521      H1526   1.084       .  S
C1522      C1523   1.404       .  A
C1523      C1524   1.407       .  A
C1523      F1527   1.356       .  S
C1524      H1528   1.083       .  S
C1529      C1530   1.402       .  A
C1529      C1534   1.396       .  A
C1529      H1539   1.083       .  S
C1530      C1535   1.475       .  S
C1530      C1531   1.404       .  A
C1531      C1532   1.395       .  A
C1531      F1536   1.358       .  S
C1532      C1533   1.406       .  A
C1532      H1537   1.082       .  S
C1533      C1534   1.410       .  A
C1534      F1538   1.356       .  S
C1535      C1540   1.405       .  A
C1535      C1544   1.402       .  A
C1540      C1541   1.396       .  A
C1540      F1545   1.358       .  S
C1541      C1542   1.405       .  A
C1541      H1546   1.083       .  S
C1542      C1543   1.408       .  A
C1543      C1544   1.395       .  A
C1543      F1547   1.356       .  S
C1544      H1548   1.083       .  S
C1549      C1550   1.406       .  A
C1549      C1554   1.403       .  A
C1549      H1559   1.083       .  S
C1550      C1555   1.501       .  S
C1550      C1551   1.414       .  A
C1551      C1552   1.407       .  A
C1551      F1556   1.357       .  S
C1552      C1553   1.403       .  A
C1552      H1557   1.083       .  S
C1553      C1554   1.408       .  A
C1554      F1558   1.358       .  S
C1555      C1560   1.415       .  A
C1555      C1564   1.404       .  A
C1560      C1561   1.410       .  A
C1560      F1565   1.357       .  S
C1561      C1562   1.405       .  A
C1561      H1566   1.082       .  S
C1562      C1563   1.409       .  A
C1563      C1564   1.398       .  A
C1563      F1567   1.356       .  S
C1564      H1568   1.083       .  S
C1569      C1570   1.413       .  A
C1569      C1574   1.413       .  A
C1569      H1579   1.083       .  S
C1570      C1575   1.505       .  S
C1570      C1571   1.407       .  A
C1571      C1572   1.400       .  A
C1571      F1576   1.357       .  S
C1572      C1573   1.409       .  A
C1572      H1577   1.083       .  S
C1573      C1574   1.409       .  A
C1574      F1578   1.357       .  S
C1575      C1580   1.415       .  A
C1575      C1584   1.405       .  A
C1580      C1581   1.408       .  A
C1580      F1585   1.357       .  S
C1581      C1582   1.405       .  A
C1581      H1586   1.083       .  S
C1582      C1583   1.412       .  A
C1583      C1584   1.405       .  A
C1583      F1587   1.356       .  S
C1584      H1588   1.083       .  S
C1589      C1590   1.404       .  A
C1589      C1594   1.397       .  A
C1589      H1599   1.083       .  S
C1590      C1595   1.482       .  S
C1590      C1591   1.407       .  A
C1591      C1592   1.396       .  A
C1591      F1596   1.358       .  S
C1592      C1593   1.404       .  A
C1592      H1597   1.083       .  S
C1593      C1594   1.408       .  A
C1594      F1598   1.357       .  S
C1595      C1600   1.406       .  A
C1595      C1604   1.404       .  A
C1600      C1601   1.396       .  A
C1600      F1605   1.358       .  S
C1601      C1602   1.405       .  A
C1601      H1606   1.082       .  S
C1602      C1603   1.408       .  A
C1603      C1604   1.397       .  A
C1603      F1607   1.357       .  S
C1604      H1608   1.083       .  S
C1609      C1610   1.413       .  A
C1609      C1614   1.412       .  A
C1609      H1619   1.083       .  S
C1610      C1615   1.503       .  S
C1610      C1611   1.406       .  A
C1611      C1612   1.401       .  A
C1611      F1616   1.357       .  S
C1612      C1613   1.410       .  A
C1612      H1617   1.083       .  S
C1613      C1614   1.408       .  A
C1614      F1618   1.357       .  S
C1615      C1620   1.415       .  A
C1615      C1624   1.403       .  A
C1620      C1621   1.409       .  A
C1620      F1625   1.357       .  S
C1621      C1622   1.406       .  A
C1621      H1626   1.082       .  S
C1622      C1623   1.413       .  A
C1623      C1624   1.402       .  A
C1623      F1627   1.356       .  S
C1624      H1628   1.083       .  S
C1629      C1630   1.410       .  A
C1629      C1634   1.408       .  A
C1629      H1639   1.083       .  S
C1630      C1635   1.498       .  S
C1630      C1631   1.405       .  A
C1631      C1632   1.402       .  A
C1631      F1636   1.358       .  S
C1632      C1633   1.412       .  A
C1632      H1637   1.082       .  S
C1633      C1634   1.409       .  A
C1634      F1638   1.356       .  S
C1635      C1640   1.406       .  A
C1635      C1644   1.411       .  A
C1640      C1641   1.400       .  A
C1640      F1645   1.357       .  S
C1641      C1642   1.408       .  A
C1641      H1646   1.084       .  S
C1642      C1643   1.408       .  A
C1643      C1644   1.409       .  A
C1643      F1647   1.356       .  S
C1644      H1648   1.083       .  S
C1649      C1650   1.406       .  A
C1649      C1654   1.398       .  A
C1649      H1659   1.083       .  S
C1650      C1655   1.485       .  S
C1650      C1651   1.407       .  A
C1651      C1652   1.398       .  A
C1651      F1656   1.357       .  S
C1652      C1653   1.405       .  A
C1652      H1657   1.083       .  S
C1653      C1654   1.406       .  A
C1654      F1658   1.357       .  S
C1655      C1660   1.406       .  A
C1655      C1664   1.405       .  A
C1660      C1661   1.397       .  A
C1660      F1665   1.357       .  S
C1661      C1662   1.405       .  A
C1661      H1666   1.083       .  S
C1662      C1663   1.411       .  A
C1663      C1664   1.399       .  A
C1663      F1667   1.356       .  S
C1664      H1668   1.083       .  S
C1669      C1670   1.413       .  A
C1669      C1674   1.411       .  A
C1669      H1679   1.083       .  S
C1670      C1675   1.505       .  S
C1670      C1671   1.407       .  A
C1671      C1672   1.401       .  A
C1671      F1676   1.357       .  S
C1672      C1673   1.410       .  A
C1672      H1677   1.082       .  S
C1673      C1674   1.409       .  A
C1674      F1678   1.356       .  S
C1675      C1680   1.408       .  A
C1675      C1684   1.414       .  A
C1680      C1681   1.403       .  A
C1680      F1685   1.357       .  S
C1681      C1682   1.408       .  A
C1681      H1686   1.084       .  S
C1682      C1683   1.404       .  A
C1683      C1684   1.409       .  A
C1683      F1687   1.356       .  S
C1684      H1688   1.083       .  S
C1689      C1690   1.403       .  A
C1689      C1694   1.401       .  A
C1689      H1699   1.083       .  S
C1690      C1695   1.500       .  S
C1690      C1691   1.414       .  A
C1691      C1692   1.410       .  A
C1691      F1696   1.357       .  S
C1692      C1693   1.405       .  A
C1692      H1697   1.083       .  S
C1693      C1694   1.413       .  A
C1694      F1698   1.357       .  S
C1695      C1700   1.407       .  A
C1695      C1704   1.412       .  A
C1700      C1701   1.401       .  A
C1700      F1705   1.357       .  S
C1701      C1702   1.408       .  A
C1701      H1706   1.084       .  S
C1702      C1703   1.406       .  A
C1703      C1704   1.408       .  A
C1703      F1707   1.356       .  S
C1704      H1708   1.083       .  S
C1709      C1710   1.404       .  A
C1709      C1714   1.398       .  A
C1709      H1719   1.083       .  S
C1710      C1715   1.482       .  S
C1710      C1711   1.405       .  A
C1711      C1712   1.397       .  A
C1711      F1716   1.357       .  S
C1712      C1713   1.406       .  A
C1712      H1717   1.082       .  S
C1713      C1714   1.408       .  A
C1714      F1718   1.357       .  S
C1715      C1720   1.406       .  A
C1715      C1724   1.405       .  A
C1720      C1721   1.396       .  A
C1720      F1725   1.358       .  S
C1721      C1722   1.404       .  A
C1721      H1726   1.083       .  S
C1722      C1723   1.407       .  A
C1723      C1724   1.399       .  A
C1723      F1727   1.357       .  S
C1724      H1728   1.083       .  S
C1729      C1730   1.405       .  A
C1729      C1734   1.403       .  A
C1729      H1739   1.083       .  S
C1730      C1735   1.500       .  S
C1730      C1731   1.413       .  A
C1731      C1732   1.406       .  A
C1731      F1736   1.357       .  S
C1732      C1733   1.404       .  A
C1732      H1737   1.083       .  S
C1733      C1734   1.411       .  A
C1734      F1738   1.357       .  S
C1735      C1740   1.414       .  A
C1735      C1744   1.404       .  A
C1740      C1741   1.409       .  A
C1740      F1745   1.357       .  S
C1741      C1742   1.404       .  A
C1741      H1746   1.083       .  S
C1742      C1743   1.410       .  A
C1743      C1744   1.401       .  A
C1743      F1747   1.358       .  S
C1744      H1748   1.083       .  S
C1749      C1750   1.411       .  A
C1749      C1754   1.410       .  A
C1749      H1759   1.083       .  S
C1750      C1755   1.499       .  S
C1750      C1751   1.405       .  A
C1751      C1752   1.401       .  A
C1751      F1756   1.358       .  S
C1752      C1753   1.411       .  A
C1752      H1757   1.082       .  S
C1753      C1754   1.408       .  A
C1754      F1758   1.356       .  S
C1755      C1760   1.406       .  A
C1755      C1764   1.413       .  A
C1760      C1761   1.400       .  A
C1760      F1765   1.357       .  S
C1761      C1762   1.406       .  A
C1761      H1766   1.083       .  S
C1762      C1763   1.404       .  A
C1763      C1764   1.409       .  A
C1763      F1767   1.357       .  S
C1764      H1768   1.083       .  S
C1769      C1770   1.405       .  A
C1769      C1774   1.398       .  A
C1769      H1779   1.083       .  S
C1770      C1775   1.486       .  S
C1770      C1771   1.408       .  A
C1771      C1772   1.398       .  A
C1771      F1776   1.358       .  S
C1772      C1773   1.405       .  A
C1772      H1777   1.083       .  S
C1773      C1774   1.407       .  A
C1774      F1778   1.357       .  S
C1775      C1780   1.409       .  A
C1775      C1784   1.405       .  A
C1780      C1781   1.398       .  A
C1780      F1785   1.357       .  S
C1781      C1782   1.404       .  A
C1781      H1786   1.083       .  S
C1782      C1783   1.407       .  A
C1783      C1784   1.398       .  A
C1783      F1787   1.357       .  S
C1784      H1788   1.083       .  S
C1789      C1790   1.401       .  A
C1789      C1794   1.402       .  A
C1789      H1799   1.084       .  S
C1790      C1795   1.496       .  S
C1790      C1791   1.404       .  A
C1791      C1792   1.405       .  A
C1791      F1796   1.357       .  S
C1792      C1793   1.417       .  A
C1792      H1797   1.076       .  S
C1793      C1794   1.425       .  A
C1794      F1798   1.354       .  S
C1795      C1800   1.413       .  A
C1795      C1804   1.402       .  A
C1800      C1801   1.411       .  A
C1800      F1805   1.357       .  S
C1801      C1802   1.406       .  A
C1801      H1806   1.083       .  S
C1802      C1803   1.410       .  A
C1803      C1804   1.397       .  A
C1803      F1807   1.357       .  S
C1804      H1808   1.083       .  S
C1809      C1810   1.403       .  A
C1809      C1814   1.402       .  A
C1809      H1819   1.083       .  S
C1810      C1815   1.505       .  S
C1810      C1811   1.415       .  A
C1811      C1812   1.412       .  A
C1811      F1816   1.357       .  S
C1812      C1813   1.408       .  A
C1812      H1817   1.083       .  S
C1813      C1814   1.415       .  A
C1814      F1818   1.356       .  S
C1815      C1820   1.408       .  A
C1815      C1824   1.413       .  A
C1820      C1821   1.403       .  A
C1820      F1825   1.357       .  S
C1821      C1822   1.408       .  A
C1821      H1826   1.083       .  S
C1822      C1823   1.405       .  A
C1823      C1824   1.409       .  A
C1823      F1827   1.356       .  S
C1824      H1828   1.083       .  S
C1829      C1830   1.405       .  A
C1829      C1834   1.399       .  A
C1829      H1839   1.083       .  S
C1830      C1835   1.486       .  S
C1830      C1831   1.406       .  A
C1831      C1832   1.397       .  A
C1831      F1836   1.357       .  S
C1832      C1833   1.405       .  A
C1832      H1837   1.083       .  S
C1833      C1834   1.409       .  A
C1834      F1838   1.357       .  S
C1835      C1840   1.407       .  A
C1835      C1844   1.404       .  A
C1840      C1841   1.399       .  A
C1840      F1845   1.357       .  S
C1841      C1842   1.406       .  A
C1841      H1846   1.083       .  S
C1842      C1843   1.410       .  A
C1843      C1844   1.398       .  A
C1843      F1847   1.356       .  S
C1844      H1848   1.083       .  S
C1849      C1850   1.403       .  A
C1849      C1854   1.402       .  A
C1849      H1859   1.083       .  S
C1850      C1855   1.498       .  S
C1850      C1851   1.413       .  A
C1851      C1852   1.408       .  A
C1851      F1856   1.357       .  S
C1852      C1853   1.404       .  A
C1852      H1857   1.083       .  S
C1853      C1854   1.412       .  A
C1854      F1858   1.357       .  S
C1855      C1860   1.413       .  A
C1855      C1864   1.403       .  A
C1860      C1861   1.411       .  A
C1860      F1865   1.357       .  S
C1861      C1862   1.406       .  A
C1861      H1866   1.083       .  S
C1862      C1863   1.411       .  A
C1863      C1864   1.401       .  A
C1863      F1867   1.357       .  S
C1864      H1868   1.083       .  S
C1869      C1870   1.410       .  A
C1869      C1874   1.407       .  A
C1869      H1879   1.083       .  S
C1870      C1875   1.499       .  S
C1870      C1871   1.406       .  A
C1871      C1872   1.401       .  A
C1871      F1876   1.357       .  S
C1872      C1873   1.411       .  A
C1872      H1877   1.082       .  S
C1873      C1874   1.408       .  A
C1874      F1878   1.356       .  S
C1875      C1880   1.414       .  A
C1875      C1884   1.402       .  A
C1880      C1881   1.410       .  A
C1880      F1885   1.357       .  S
C1881      C1882   1.405       .  A
C1881      H1886   1.082       .  S
C1882      C1883   1.410       .  A
C1883      C1884   1.398       .  A
C1883      F1887   1.354       .  S
C1884      H1888   1.083       .  S
C1889      C1890   1.404       .  A
C1889      C1894   1.398       .  A
C1889      H1899   1.083       .  S
C1890      C1895   1.481       .  S
C1890      C1891   1.406       .  A
C1891      C1892   1.396       .  A
C1891      F1896   1.357       .  S
C1892      C1893   1.404       .  A
C1892      H1897   1.083       .  S
C1893      C1894   1.409       .  A
C1894      F1898   1.357       .  S
C1895      C1900   1.405       .  A
C1895      C1904   1.403       .  A
C1900      C1901   1.398       .  A
C1900      F1905   1.358       .  S
C1901      C1902   1.407       .  A
C1901      H1906   1.082       .  S
C1902      C1903   1.409       .  A
C1903      C1904   1.396       .  A
C1903      F1907   1.356       .  S
C1904      H1908   1.083       .  S
C1909      C1910   1.402       .  A
C1909      C1914   1.401       .  A
C1909      H1919   1.083       .  S
C1910      C1915   1.497       .  S
C1910      C1911   1.412       .  A
C1911      C1912   1.409       .  A
C1911      F1916   1.357       .  S
C1912      C1913   1.406       .  A
C1912      H1917   1.083       .  S
C1913      C1914   1.413       .  A
C1914      F1918   1.357       .  S
C1915      C1920   1.413       .  A
C1915      C1924   1.403       .  A
C1920      C1921   1.409       .  A
C1920      F1925   1.357       .  S
C1921      C1922   1.405       .  A
C1921      H1926   1.082       .  S
C1922      C1923   1.412       .  A
C1923      C1924   1.400       .  A
C1923      F1927   1.358       .  S
C1924      H1928   1.083       .  S
C1929      C1930   1.406       .  A
C1929      C1934   1.402       .  A
C1929      H1939   1.083       .  S
C1930      C1935   1.509       .  S
C1930      C1931   1.417       .  A
C1931      C1932   1.412       .  A
C1931      F1936   1.357       .  S
C1932      C1933   1.404       .  A
C1932      H1937   1.083       .  S
C1933      C1934   1.410       .  A
C1934      F1938   1.357       .  S
C1935      C1940   1.411       .  A
C1935      C1944   1.413       .  A
C1940      C1941   1.406       .  A
C1940      F1945   1.357       .  S
C1941      C1942   1.407       .  A
C1941      H1946   1.083       .  S
C1942      C1943   1.406       .  A
C1943      C1944   1.409       .  A
C1943      F1947   1.357       .  S
C1944      H1948   1.083       .  S
C1949      C1950   1.403       .  A
C1949      C1954   1.399       .  A
C1949      H1959   1.083       .  S
C1950      C1955   1.481       .  S
C1950      C1951   1.405   1_565  A
C1951      C1952   1.397       .  A
C1951      F1956   1.358       .  S
C1952      C1953   1.407   1_545  A
C1952      H1957   1.082       .  S
C1953      C1954   1.410       .  A
C1954      F1958   1.356       .  S
C1955      C1960   1.404       .  A
C1955      C1964   1.403   1_565  A
C1960      C1961   1.399       .  A
C1960      F1965   1.358       .  S
C1961      C1962   1.408       .  A
C1961      H1966   1.082       .  S
C1962      C1963   1.409   1_565  A
C1963      C1964   1.398       .  A
C1963      F1967   1.356       .  S
C1964      H1968   1.083       .  S
C1969      C1970   1.405       .  A
C1969      C1974   1.398       .  A
C1969      H1979   1.082       .  S
C1970      C1975   1.502       .  S
C1970      C1971   1.416       .  A
C1971      C1972   1.408       .  A
C1971      F1976   1.357       .  S
C1972      C1973   1.403       .  A
C1972      H1977   1.083       .  S
C1973      C1974   1.408       .  A
C1974      F1978   1.357       .  S
C1975      C1980   1.415       .  A
C1975      C1984   1.406       .  A
C1980      C1981   1.405       .  A
C1980      F1985   1.357       .  S
C1981      C1982   1.403       .  A
C1981      H1986   1.083       .  S
C1982      C1983   1.409       .  A
C1983      C1984   1.401       .  A
C1983      F1987   1.357       .  S
C1984      H1988   1.083       .  S
C1989      C1990   1.413       .  A
C1989      C1994   1.407       .  A
C1989      H1999   1.083       .  S
C1990      C1995   1.499       .  S
C1990      C1991   1.407       .  A
C1991      C1992   1.399       .  A
C1991      F1996   1.357       .  S
C1992      C1993   1.406       .  A
C1992      H1997   1.083       .  S
C1993      C1994   1.403       .  A
C1994      F1998   1.357       .  S
C1995      C2000   1.414       .  A
C1995      C2004   1.402       .  A
C2000      C2001   1.409       .  A
C2000      F2005   1.357       .  S
C2001      C2002   1.406       .  A
C2001      H2006   1.083       .  S
C2002      C2003   1.414       .  A
C2003      C2004   1.399       .  A
C2003      F2007   1.357       .  S
C2004      H2008   1.083       .  S
C2009      C2010   1.401       .  A
C2009      C2014   1.394       .  A
C2009      H2019   1.084       .  S
C2010      C2015   1.475       .  S
C2010      C2011   1.403       .  A
C2011      C2012   1.397       .  A
C2011      F2016   1.358       .  S
C2012      C2013   1.407       .  A
C2012      H2017   1.082       .  S
C2013      C2014   1.410       .  A
C2014      F2018   1.356       .  S
C2015      C2020   1.405       .  A
C2015      C2024   1.401       .  A
C2020      C2021   1.397       .  A
C2020      F2025   1.358       .  S
C2021      C2022   1.406       .  A
C2021      H2026   1.083       .  S
C2022      C2023   1.408       .  A
C2023      C2024   1.394       .  A
C2023      F2027   1.356   1_545  S
C2024      H2028   1.084   1_545  S
C2029      C2030   1.415       .  A
C2029      C2034   1.411       .  A
C2029      H2039   1.082       .  S
C2030      C2035   1.506       .  S
C2030      C2031   1.409       .  A
C2031      C2032   1.400       .  A
C2031      F2036   1.357       .  S
C2032      C2033   1.404       .  A
C2032      H2037   1.082       .  S
C2033      C2034   1.404       .  A
C2034      F2038   1.357       .  S
C2035      C2040   1.409       .  A
C2035      C2044   1.412       .  A
C2040      C2041   1.404       .  A
C2040      F2045   1.357       .  S
C2041      C2042   1.410       .  A
C2041      H2046   1.083       .  S
C2042      C2043   1.407       .  A
C2043      C2044   1.408       .  A
C2043      F2047   1.356       .  S
C2044      H2048   1.082       .  S
C2049      C2050   1.413       .  A
C2049      C2054   1.409       .  A
C2049      H2059   1.082       .  S
C2050      C2055   1.508       .  S
C2050      C2051   1.411       .  A
C2051      C2052   1.404       .  A
C2051      F2056   1.357       .  S
C2052      C2053   1.406       .  A
C2052      H2057   1.083       .  S
C2053      C2054   1.406       .  A
C2054      F2058   1.357       .  S
C2055      C2060   1.411       .  A
C2055      C2064   1.415       .  A
C2060      C2061   1.403       .  A
C2060      F2065   1.357       .  S
C2061      C2062   1.406       .  A
C2061      H2066   1.084       .  S
C2062      C2063   1.402       .  A
C2063      C2064   1.409       .  A
C2063      F2067   1.356       .  S
C2064      H2068   1.082       .  S
C2069      C2070   1.404       .  A
C2069      C2074   1.401       .  A
C2069      H2079   1.083       .  S
C2070      C2075   1.486       .  S
C2070      C2071   1.406       .  A
C2071      C2072   1.398       .  A
C2071      F2076   1.358       .  S
C2072      C2073   1.406       .  A
C2072      H2077   1.082       .  S
C2073      C2074   1.411       .  A
C2074      F2078   1.357       .  S
C2075      C2080   1.407       .  A
C2075      C2084   1.405       .  A
C2080      C2081   1.400       .  A
C2080      F2085   1.358       .  S
C2081      C2082   1.406       .  A
C2081      H2086   1.083       .  S
C2082      C2083   1.407       .  A
C2083      C2084   1.399       .  A
C2083      F2087   1.357       .  S
C2084      H2088   1.083       .  S
C2089      C2090   1.412       .  A
C2089      C2094   1.410       .  A
C2089      H2099   1.083       .  S
C2090      C2095   1.503       .  S
C2090      C2091   1.406       .  A
C2091      C2092   1.402       .  A
C2091      F2096   1.358       .  S
C2092      C2093   1.411       .  A
C2092      H2097   1.082       .  S
C2093      C2094   1.408       .  A
C2094      F2098   1.356       .  S
C2095      C2100   1.407       .  A
C2095      C2104   1.413       .  A
C2100      C2101   1.402       .  A
C2100      F2105   1.357       .  S
C2101      C2102   1.409       .  A
C2101      H2106   1.083       .  S
C2102      C2103   1.406       .  A
C2103      C2104   1.410       .  A
C2103      F2107   1.356       .  S
C2104      H2108   1.083       .  S
C2109      C2110   1.400       .  A
C2109      C2114   1.399       .  A
C2109      H2119   1.083       .  S
C2110      C2115   1.490       .  S
C2110      C2111   1.411       .  A
C2111      C2112   1.405       .  A
C2111      F2116   1.357       .  S
C2112      C2113   1.405       .  A
C2112      H2117   1.082       .  S
C2113      C2114   1.413       .  A
C2114      F2118   1.357       .  S
C2115      C2120   1.401       .  A
C2115      C2124   1.410       .  A
C2120      C2121   1.396       .  A
C2120      F2125   1.358       .  S
C2121      C2122   1.410       .  A
C2121      H2126   1.083       .  S
C2122      C2123   1.408       .  A
C2123      C2124   1.410       .  A
C2123      F2127   1.357       .  S
C2124      H2128   1.083       .  S
C2129      C2130   1.402       .  A
C2129      C2134   1.397       .  A
C2129      H2139   1.083       .  S
C2130      C2135   1.477   1_556  S
C2130      C2131   1.404       .  A
C2131      C2132   1.395       .  A
C2131      F2136   1.358       .  S
C2132      C2133   1.407       .  A
C2132      H2137   1.081       .  S
C2133      C2134   1.410       .  A
C2134      F2138   1.356       .  S
C2135      C2140   1.405       .  A
C2135      C2144   1.403       .  A
C2140      C2141   1.396       .  A
C2140      F2145   1.358       .  S
C2141      C2142   1.405       .  A
C2141      H2146   1.083       .  S
C2142      C2143   1.408       .  A
C2143      C2144   1.397       .  A
C2143      F2147   1.357       .  S
C2144      H2148   1.083       .  S
C2149      C2150   1.399       .  A
C2149      C2154   1.397       .  A
C2149      H2159   1.084       .  S
C2150      C2155   1.490       .  S
C2150      C2151   1.412       .  A
C2151      C2152   1.410       .  A
C2151      F2156   1.357       .  S
C2152      C2153   1.406       .  A
C2152      H2157   1.083       .  S
C2153      C2154   1.412       .  A
C2154      F2158   1.357       .  S
C2155      C2160   1.412       .  A
C2155      C2164   1.400       .  A
C2160      C2161   1.407       .  A
C2160      F2165   1.357       .  S
C2161      C2162   1.403       .  A
C2161      H2166   1.083       .  S
C2162      C2163   1.411       .  A
C2163      C2164   1.398       .  A
C2163      F2167   1.357       .  S
C2164      H2168   1.083       .  S
C2169      C2170   1.400       .  A
C2169      C2174   1.398       .  A
C2169      H2179   1.083       .  S
C2170      C2175   1.490       .  S
C2170      C2171   1.410       .  A
C2171      C2172   1.409       .  A
C2171      F2176   1.357       .  S
C2172      C2173   1.406       .  A
C2172      H2177   1.083       .  S
C2173      C2174   1.413       .  A
C2174      F2178   1.357       .  S
C2175      C2180   1.411       .  A
C2175      C2184   1.401       .  A
C2180      C2181   1.407       .  A
C2180      F2185   1.357       .  S
C2181      C2182   1.404       .  A
C2181      H2186   1.083       .  S
C2182      C2183   1.412       .  A
C2183      C2184   1.399       .  A
C2183      F2187   1.358       .  S
C2184      H2188   1.083       .  S
C2189      C2190   1.403       .  A
C2189      C2194   1.398       .  A
C2189      H2199   1.083       .  S
C2190      C2195   1.478   1_455  S
C2190      C2191   1.404       .  A
C2191      C2192   1.396       .  A
C2191      F2196   1.358       .  S
C2192      C2193   1.405       .  A
C2192      H2197   1.083       .  S
C2193      C2194   1.409       .  A
C2194      F2198   1.357       .  S
C2195      C2200   1.405       .  A
C2195      C2204   1.403       .  A
C2200      C2201   1.399       .  A
C2200      F2205   1.358       .  S
C2201      C2202   1.407       .  A
C2201      H2206   1.083       .  S
C2202      C2203   1.408       .  A
C2203      C2204   1.396       .  A
C2203      F2207   1.356       .  S
C2204      H2208   1.083       .  S
C2209      C2210   1.413       .  A
C2209      C2214   1.410       .  A
C2209      H2219   1.083       .  S
C2210      C2215   1.502       .  S
C2210      C2211   1.406       .  A
C2211      C2212   1.400       .  A
C2211      F2216   1.358       .  S
C2212      C2213   1.409       .  A
C2212      H2217   1.083       .  S
C2213      C2214   1.407       .  A
C2214      F2218   1.357       .  S
C2215      C2220   1.407       .  A
C2215      C2224   1.414       .  A
C2220      C2221   1.401       .  A
C2220      F2225   1.357       .  S
C2221      C2222   1.407       .  A
C2221      H2226   1.083       .  S
C2222      C2223   1.403       .  A
C2223      C2224   1.409       .  A
C2223      F2227   1.357       .  S
C2224      H2228   1.083       .  S
C2229      C2230   1.404       .  A
C2229      C2234   1.402       .  A
C2229      H2239   1.083       .  S
C2230      C2235   1.497       .  S
C2230      C2231   1.412       .  A
C2231      C2232   1.407       .  A
C2231      F2236   1.357       .  S
C2232      C2233   1.404       .  A
C2232      H2237   1.083       .  S
C2233      C2234   1.412       .  A
C2234      F2238   1.357       .  S
C2235      C2240   1.414       .  A
C2235      C2244   1.403       .  A
C2240      C2241   1.410       .  A
C2240      F2245   1.357       .  S
C2241      C2242   1.405       .  A
C2241      H2246   1.083       .  S
C2242      C2243   1.410       .  A
C2243      C2244   1.399       .  A
C2243      F2247   1.357       .  S
C2244      H2248   1.083       .  S
C2249      C2250   1.403       .  A
C2249      C2254   1.396       .  A
C2249      H2259   1.083       .  S
C2250      C2255   1.478       .  S
C2250      C2251   1.404       .  A
C2251      C2252   1.396       .  A
C2251      F2256   1.357       .  S
C2252      C2253   1.406       .  A
C2252      H2257   1.083       .  S
C2253      C2254   1.409       .  A
C2254      F2258   1.356       .  S
C2255      C2260   1.404       .  A
C2255      C2264   1.403       .  A
C2260      C2261   1.395       .  A
C2260      F2265   1.357       .  S
C2261      C2262   1.406       .  A
C2261      H2266   1.082       .  S
C2262      C2263   1.410       .  A
C2263      C2264   1.397       .  A
C2263      F2267   1.356       .  S
C2264      H2268   1.083       .  S
C2269      C2270   1.401       .  A
C2269      C2274   1.398       .  A
C2269      H2279   1.083       .  S
C2270      C2275   1.491       .  S
C2270      C2271   1.412       .  A
C2271      C2272   1.408       .  A
C2271      F2276   1.357       .  S
C2272      C2273   1.405       .  A
C2272      H2277   1.082       .  S
C2273      C2274   1.412       .  A
C2274      F2278   1.357       .  S
C2275      C2280   1.411       .  A
C2275      C2284   1.401       .  A
C2280      C2281   1.408       .  A
C2280      F2285   1.357       .  S
C2281      C2282   1.405       .  A
C2281      H2286   1.083       .  S
C2282      C2283   1.411       .  A
C2283      C2284   1.400       .  A
C2283      F2287   1.357       .  S
C2284      H2288   1.083       .  S
C2289      C2290   1.405       .  A
C2289      C2294   1.398       .  A
C2289      H2299   1.083       .  S
C2290      C2295   1.502       .  S
C2290      C2291   1.416       .  A
C2291      C2292   1.408       .  A
C2291      F2296   1.357       .  S
C2292      C2293   1.403       .  A
C2292      H2297   1.083       .  S
C2293      C2294   1.408       .  A
C2294      F2298   1.358       .  S
C2295      C2300   1.417       .  A
C2295      C2304   1.404       .  A
C2300      C2301   1.406       .  A
C2300      F2305   1.357       .  S
C2301      C2302   1.402       .  A
C2301      H2306   1.083       .  S
C2302      C2303   1.409       .  A
C2303      C2304   1.399       .  A
C2303      F2307   1.356       .  S
C2304      H2308   1.082       .  S
C2309      C2310   1.401       .  A
C2309      C2314   1.397       .  A
C2309      H2319   1.084       .  S
C2310      C2315   1.477   1_556  S
C2310      C2311   1.404       .  A
C2311      C2312   1.398       .  A
C2311      F2316   1.357       .  S
C2312      C2313   1.407       .  A
C2312      H2317   1.083       .  S
C2313      C2314   1.410       .  A
C2314      F2318   1.356       .  S
C2315      C2320   1.404       .  A
C2315      C2324   1.402       .  A
C2320      C2321   1.398       .  A
C2320      F2325   1.358       .  S
C2321      C2322   1.406       .  A
C2321      H2326   1.083       .  S
C2322      C2323   1.409       .  A
C2323      C2324   1.397       .  A
C2323      F2327   1.357       .  S
C2324      H2328   1.083       .  S
C2329      C2330   1.404       .  A
C2329      C2334   1.402       .  A
C2329      H2339   1.083       .  S
C2330      C2335   1.498       .  S
C2330      C2331   1.413       .  A
C2331      C2332   1.408       .  A
C2331      F2336   1.357       .  S
C2332      C2333   1.405       .  A
C2332      H2337   1.083       .  S
C2333      C2334   1.411       .  A
C2334      F2338   1.357       .  S
C2335      C2340   1.414       .  A
C2335      C2344   1.403       .  A
C2340      C2341   1.410       .  A
C2340      F2345   1.357       .  S
C2341      C2342   1.404       .  A
C2341      H2346   1.083       .  S
C2342      C2343   1.411       .  A
C2343      C2344   1.399       .  A
C2343      F2347   1.357       .  S
C2344      H2348   1.083       .  S
C2349      C2350   1.414       .  A
C2349      C2354   1.410       .  A
C2349      H2359   1.083       .  S
C2350      C2355   1.503       .  S
C2350      C2351   1.407       .  A
C2351      C2352   1.400       .  A
C2351      F2356   1.357       .  S
C2352      C2353   1.406       .  A
C2352      H2357   1.081       .  S
C2353      C2354   1.404       .  A
C2354      F2358   1.356       .  S
C2355      C2360   1.406       .  A
C2355      C2364   1.413       .  A
C2360      C2361   1.400       .  A
C2360      F2365   1.357       .  S
C2361      C2362   1.410       .  A
C2361      H2366   1.082       .  S
C2362      C2363   1.409       .  A
C2363      C2364   1.411       .  A
C2363      F2367   1.357       .  S
C2364      H2368   1.083       .  S
C2369      C2370   1.405       .  A
C2369      C2374   1.397       .  A
C2369      H2379   1.083       .  S
C2370      C2375   1.485   1_556  S
C2370      C2371   1.407       .  A
C2371      C2372   1.398       .  A
C2371      F2376   1.357       .  S
C2372      C2373   1.405       .  A
C2372      H2377   1.083       .  S
C2373      C2374   1.408       .  A
C2374      F2378   1.356       .  S
C2375      C2380   1.407       .  A
C2375      C2384   1.406       .  A
C2380      C2381   1.395       .  A
C2380      F2385   1.357       .  S
C2381      C2382   1.402       .  A
C2381      H2386   1.083       .  S
C2382      C2383   1.408       .  A
C2383      C2384   1.398       .  A
C2383      F2387   1.357       .  S
C2384      H2388   1.083       .  S
C2389      C2390   1.404       .  A
C2389      C2394   1.400       .  A
C2389      H2399   1.083       .  S
C2390      C2395   1.495       .  S
C2390      C2391   1.412       .  A
C2391      C2392   1.408       .  A
C2391      F2396   1.357       .  S
C2392      C2393   1.404       .  A
C2392      H2397   1.083       .  S
C2393      C2394   1.409       .  A
C2394      F2398   1.358       .  S
C2395      C2400   1.413       .  A
C2395      C2404   1.401       .  A
C2400      C2401   1.408       .  A
C2400      F2405   1.357       .  S
C2401      C2402   1.405       .  A
C2401      H2406   1.082       .  S
C2402      C2403   1.412       .  A
C2403      C2404   1.398       .  A
C2403      F2407   1.357       .  S
C2404      H2408   1.083       .  S
C2409      C2410   1.402       .  A
C2409      C2414   1.400       .  A
C2409      H2419   1.083       .  S
C2410      C2415   1.496       .  S
C2410      C2411   1.412       .  A
C2411      C2412   1.409       .  A
C2411      F2416   1.357       .  S
C2412      C2413   1.406       .  A
C2412      H2417   1.083       .  S
C2413      C2414   1.414       .  A
C2414      F2418   1.357       .  S
C2415      C2420   1.405       .  A
C2415      C2424   1.412       .  A
C2420      C2421   1.400       .  A
C2420      F2425   1.357       .  S
C2421      C2422   1.407       .  A
C2421      H2426   1.082       .  S
C2422      C2423   1.404       .  A
C2423      C2424   1.409       .  A
C2423      F2427   1.356       .  S
C2424      H2428   1.083       .  S
C2429      C2430   1.404       .  A
C2429      C2434   1.401       .  A
C2429      H2439   1.083       .  S
C2430      C2435   1.484       .  S
C2430      C2431   1.406       .  A
C2431      C2432   1.396       .  A
C2431      F2436   1.358       .  S
C2432      C2433   1.405       .  A
C2432      H2437   1.082       .  S
C2433      C2434   1.411       .  A
C2434      F2438   1.357       .  S
C2435      C2440   1.408       .  A
C2435      C2444   1.404       .  A
C2440      C2441   1.400       .  A
C2440      F2445   1.358       .  S
C2441      C2442   1.405       .  A
C2441      H2446   1.083       .  S
C2442      C2443   1.406       .  A
C2443      C2444   1.397       .  A
C2443      F2447   1.357       .  S
C2444      H2448   1.083       .  S
C2449      C2450   1.403       .  A
C2449      C2454   1.403       .  A
C2449      H2459   1.083       .  S
C2450      C2455   1.500       .  S
C2450      C2451   1.413       .  A
C2451      C2452   1.409       .  A
C2451      F2456   1.357       .  S
C2452      C2453   1.405       .  A
C2452      H2457   1.082       .  S
C2453      C2454   1.412       .  A
C2454      F2458   1.357       .  S
C2455      C2460   1.405       .  A
C2455      C2464   1.411       .  A
C2460      C2461   1.402       .  A
C2460      F2465   1.358       .  S
C2461      C2462   1.410       .  A
C2461      H2466   1.083       .  S
C2462      C2463   1.409       .  A
C2463      C2464   1.412       .  A
C2463      F2467   1.357       .  S
C2464      H2468   1.083       .  S
C2469      C2470   1.406       .  A
C2469      C2474   1.401       .  A
C2469      H2479   1.082       .  S
C2470      C2475   1.504       .  S
C2470      C2471   1.416       .  A
C2471      C2472   1.408       .  A
C2471      F2476   1.357       .  S
C2472      C2473   1.403       .  A
C2472      H2477   1.083       .  S
C2473      C2474   1.410       .  A
C2474      F2478   1.357       .  S
C2475      C2480   1.418       .  A
C2475      C2484   1.405       .  A
C2480      C2481   1.408       .  A
C2480      F2485   1.357       .  S
C2481      C2482   1.401       .  A
C2481      H2486   1.083       .  S
C2482      C2483   1.406       .  A
C2483      C2484   1.398       .  A
C2483      F2487   1.357       .  S
C2484      H2488   1.082       .  S
C2489      C2490   1.404       .  A
C2489      C2494   1.399       .  A
C2489      H2499   1.083       .  S
C2490      C2495   1.483   1_655  S
C2490      C2491   1.406       .  A
C2491      C2492   1.397       .  A
C2491      F2496   1.358       .  S
C2492      C2493   1.405       .  A
C2492      H2497   1.082       .  S
C2493      C2494   1.408       .  A
C2494      F2498   1.357       .  S
C2495      C2500   1.406       .  A
C2495      C2504   1.404       .  A
C2500      C2501   1.397       .  A
C2500      F2505   1.357       .  S
C2501      C2502   1.406       .  A
C2501      H2506   1.082       .  S
C2502      C2503   1.411       .  A
C2503      C2504   1.399       .  A
C2503      F2507   1.356       .  S
C2504      H2508   1.083       .  S
C2509      C2510   1.413       .  A
C2509      C2514   1.410       .  A
C2509      H2519   1.082       .  S
C2510      C2515   1.509       .  S
C2510      C2511   1.409       .  A
C2511      C2512   1.401       .  A
C2511      F2516   1.357       .  S
C2512      C2513   1.410       .  A
C2512      H2517   1.081       .  S
C2513      C2514   1.409       .  A
C2514      F2518   1.356       .  S
C2515      C2520   1.410       .  A
C2515      C2524   1.414       .  A
C2520      C2521   1.403       .  A
C2520      F2525   1.357       .  S
C2521      C2522   1.408       .  A
C2521      H2526   1.084       .  S
C2522      C2523   1.406       .  A
C2523      C2524   1.408       .  A
C2523      F2527   1.356       .  S
C2524      H2528   1.082       .  S
C2529      C2530   1.403       .  A
C2529      C2534   1.399       .  A
C2529      H2539   1.083       .  S
C2530      C2535   1.504       .  S
C2530      C2531   1.414       .  A
C2531      C2532   1.412       .  A
C2531      F2536   1.357       .  S
C2532      C2533   1.409       .  A
C2532      H2537   1.083       .  S
C2533      C2534   1.414       .  A
C2534      F2538   1.356       .  S
C2535      C2540   1.416       .  A
C2535      C2544   1.406       .  A
C2540      C2541   1.407       .  A
C2540      F2545   1.357       .  S
C2541      C2542   1.401       .  A
C2541      H2546   1.083       .  S
C2542      C2543   1.410       .  A
C2543      C2544   1.404       .  A
C2543      F2547   1.357       .  S
C2544      H2548   1.083       .  S
C2549      C2550   1.403       .  A
C2549      C2554   1.399       .  A
C2549      H2559   1.083       .  S
C2550      C2555   1.480       .  S
C2550      C2551   1.405       .  A
C2551      C2552   1.399       .  A
C2551      F2556   1.357       .  S
C2552      C2553   1.405       .  A
C2552      H2557   1.083       .  S
C2553      C2554   1.408       .  A
C2554      F2558   1.357       .  S
C2555      C2560   1.404       .  A
C2555      C2564   1.402       .  A
C2560      C2561   1.399       .  A
C2560      F2565   1.358       .  S
C2561      C2562   1.407       .  A
C2561      H2566   1.082       .  S
C2562      C2563   1.410       .  A
C2563      C2564   1.400       .  A
C2563      F2567   1.356       .  S
C2564      H2568   1.083       .  S
C2569      C2570   1.412       .  A
C2569      C2574   1.411       .  A
C2569      H2579   1.083       .  S
C2570      C2575   1.500       .  S
C2570      C2571   1.405       .  A
C2571      C2572   1.400       .  A
C2571      F2576   1.358       .  S
C2572      C2573   1.412       .  A
C2572      H2577   1.082       .  S
C2573      C2574   1.408       .  A
C2574      F2578   1.356       .  S
C2575      C2580   1.406       .  A
C2575      C2584   1.413       .  A
C2580      C2581   1.401       .  A
C2580      F2585   1.357       .  S
C2581      C2582   1.408       .  A
C2581      H2586   1.084       .  S
C2582      C2583   1.404       .  A
C2583      C2584   1.409       .  A
C2583      F2587   1.357       .  S
C2584      H2588   1.083       .  S
C2589      C2590   1.403       .  A
C2589      C2594   1.400       .  A
C2589      H2599   1.083       .  S
C2590      C2595   1.498       .  S
C2590      C2591   1.411       .  A
C2591      C2592   1.408       .  A
C2591      F2596   1.357       .  S
C2592      C2593   1.406       .  A
C2592      H2597   1.083       .  S
C2593      C2594   1.413       .  A
C2594      F2598   1.357       .  S
C2595      C2600   1.405       .  A
C2595      C2604   1.402       .  A
C2600      C2601   1.402       .  A
C2600      F2605   1.358       .  S
C2601      C2602   1.414       .  A
C2601      H2606   1.075       .  S
C2602      C2603   1.423       .  A
C2603      C2604   1.405       .  A
C2603      F2607   1.355       .  S
C2604      H2608   1.083       .  S
C2609      C2610   1.403       .  A
C2609      C2614   1.400       .  A
C2609      H2619   1.083       .  S
C2610      C2615   1.480   1_655  S
C2610      C2611   1.404       .  A
C2611      C2612   1.396       .  A
C2611      F2616   1.358       .  S
C2612      C2613   1.407       .  A
C2612      H2617   1.082       .  S
C2613      C2614   1.411       .  A
C2614      F2618   1.356       .  S
C2615      C2620   1.406       .  A
C2615      C2624   1.402       .  A
C2620      C2621   1.400       .  A
C2620      F2625   1.357       .  S
C2621      C2622   1.406       .  A
C2621      H2626   1.083       .  S
C2622      C2623   1.409       .  A
C2623      C2624   1.395       .  A
C2623      F2627   1.357       .  S
C2624      H2628   1.083       .  S
C2629      C2630   1.411       .  A
C2629      C2634   1.415       .  A
C2629      H2639   1.083       .  S
C2630      C2635   1.503       .  S
C2630      C2631   1.404       .  A
C2631      C2632   1.401       .  A
C2631      F2636   1.357       .  S
C2632      C2633   1.412       .  A
C2632      H2637   1.081       .  S
C2633      C2634   1.412       .  A
C2634      F2638   1.356       .  S
C2635      C2640   1.412       .  A
C2635      C2644   1.405       .  A
C2640      C2641   1.408       .  A
C2640      F2645   1.357       .  S
C2641      C2642   1.406       .  A
C2641      H2646   1.083       .  S
C2642      C2643   1.413       .  A
C2643      C2644   1.407       .  A
C2643      F2647   1.356       .  S
C2644      H2648   1.083       .  S
C2649      C2650   1.401       .  A
C2649      C2654   1.400       .  A
C2649      H2659   1.083       .  S
C2650      C2655   1.499       .  S
C2650      C2651   1.413       .  A
C2651      C2652   1.412       .  A
C2651      F2656   1.357       .  S
C2652      C2653   1.407       .  A
C2652      H2657   1.083       .  S
C2653      C2654   1.415       .  A
C2654      F2658   1.357       .  S
C2655      C2660   1.414       .  A
C2655      C2664   1.404       .  A
C2660      C2661   1.408       .  A
C2660      F2665   1.357       .  S
C2661      C2662   1.403       .  A
C2661      H2666   1.083       .  S
C2662      C2663   1.410       .  A
C2663      C2664   1.402       .  A
C2663      F2667   1.358       .  S
C2664      H2668   1.083       .  S
C2669      C2670   1.403       .  A
C2669      C2674   1.396       .  A
C2669      H2679   1.083       .  S
C2670      C2675   1.483   1_556  S
C2670      C2671   1.407       .  A
C2671      C2672   1.399       .  A
C2671      F2676   1.357       .  S
C2672      C2673   1.406       .  A
C2672      H2677   1.083       .  S
C2673      C2674   1.410       .  A
C2674      F2678   1.356       .  S
C2675      C2680   1.406       .  A
C2675      C2684   1.402       .  A
C2680      C2681   1.399       .  A
C2680      F2685   1.358       .  S
C2681      C2682   1.407       .  A
C2681      H2686   1.082       .  S
C2682      C2683   1.411       .  A
C2683      C2684   1.397       .  A
C2683      F2687   1.356       .  S
C2684      H2688   1.083       .  S
C2689      C2690   1.411       .  A
C2689      C2694   1.410       .  A
C2689      H2699   1.083       .  S
C2690      C2695   1.499       .  S
C2690      C2691   1.405       .  A
C2691      C2692   1.401       .  A
C2691      F2696   1.357       .  S
C2692      C2693   1.411       .  A
C2692      H2697   1.082       .  S
C2693      C2694   1.410       .  A
C2694      F2698   1.356       .  S
C2695      C2700   1.414       .  A
C2695      C2704   1.402       .  A
C2700      C2701   1.409       .  A
C2700      F2705   1.357       .  S
C2701      C2702   1.404       .  A
C2701      H2706   1.082       .  S
C2702      C2703   1.411       .  A
C2703      C2704   1.400       .  A
C2703      F2707   1.355       .  S
C2704      H2708   1.083       .  S
C2709      C2710   1.401       .  A
C2709      C2714   1.400       .  A
C2709      H2719   1.083       .  S
C2710      C2715   1.495       .  S
C2710      C2711   1.412       .  A
C2711      C2712   1.409       .  A
C2711      F2716   1.357       .  S
C2712      C2713   1.406       .  A
C2712      H2717   1.083       .  S
C2713      C2714   1.414       .  A
C2714      F2718   1.357       .  S
C2715      C2720   1.411       .  A
C2715      C2724   1.402       .  A
C2720      C2721   1.407       .  A
C2720      F2725   1.357       .  S
C2721      C2722   1.406       .  A
C2721      H2726   1.082       .  S
C2722      C2723   1.414       .  A
C2723      C2724   1.401       .  A
C2723      F2727   1.358       .  S
C2724      H2728   1.083       .  S
C2729      C2730   1.404       .  A
C2729      C2734   1.397       .  A
C2729      H2739   1.083       .  S
C2730      C2735   1.484   1_655  S
C2730      C2731   1.406       .  A
C2731      C2732   1.398       .  A
C2731      F2736   1.358       .  S
C2732      C2733   1.407       .  A
C2732      H2737   1.083       .  S
C2733      C2734   1.409       .  A
C2734      F2738   1.356       .  S
C2735      C2740   1.405       .  A
C2735      C2744   1.404       .  A
C2740      C2741   1.396       .  A
C2740      F2745   1.357       .  S
C2741      C2742   1.407       .  A
C2741      H2746   1.082       .  S
C2742      C2743   1.411       .  A
C2743      C2744   1.400       .  A
C2743      F2747   1.356       .  S
C2744      H2748   1.083       .  S
C2749      C2750   1.407       .  A
C2749      C2754   1.404       .  A
C2749      H2759   1.083       .  S
C2750      C2755   1.508       .  S
C2750      C2751   1.416       .  A
C2751      C2752   1.410       .  A
C2751      F2756   1.357       .  S
C2752      C2753   1.404       .  A
C2752      H2757   1.083       .  S
C2753      C2754   1.410       .  A
C2754      F2758   1.358       .  S
C2755      C2760   1.416       .  A
C2755      C2764   1.405       .  A
C2760      C2761   1.411       .  A
C2760      F2765   1.357       .  S
C2761      C2762   1.407       .  A
C2761      H2766   1.082       .  S
C2762      C2763   1.411       .  A
C2763      C2764   1.401       .  A
C2763      F2767   1.355       .  S
C2764      H2768   1.083       .  S
C2769      C2770   1.411       .  A
C2769      C2774   1.409       .  A
C2769      H2779   1.083       .  S
C2770      C2775   1.499       .  S
C2770      C2771   1.405       .  A
C2771      C2772   1.400       .  A
C2771      F2776   1.357       .  S
C2772      C2773   1.410       .  A
C2772      H2777   1.083       .  S
C2773      C2774   1.409       .  A
C2774      F2778   1.356       .  S
C2775      C2780   1.406       .  A
C2775      C2784   1.411       .  A
C2780      C2781   1.401       .  A
C2780      F2785   1.357       .  S
C2781      C2782   1.409       .  A
C2781      H2786   1.083       .  S
C2782      C2783   1.408       .  A
C2783      C2784   1.408       .  A
C2783      F2787   1.356       .  S
C2784      H2788   1.083       .  S
C2789      C2790   1.404       .  A
C2789      C2794   1.396       .  A
C2789      H2799   1.083       .  S
C2790      C2795   1.481       .  S
C2790      C2791   1.407       .  A
C2791      C2792   1.400       .  A
C2791      F2796   1.358       .  S
C2792      C2793   1.404       .  A
C2792      H2797   1.083       .  S
C2793      C2794   1.404       .  A
C2794      F2798   1.357       .  S
C2795      C2800   1.405       .  A
C2795      C2804   1.403       .  A
C2800      C2801   1.396       .  A
C2800      F2805   1.358       .  S
C2801      C2802   1.405       .  A
C2801      H2806   1.082       .  S
C2802      C2803   1.410       .  A
C2803      C2804   1.400       .  A
C2803      F2807   1.357       .  S
C2804      H2808   1.083       .  S
