geometry optimzed in LAMMPS
_audit_creation_date              2020-11-30 
_audit_creation_method            'lammps2cif' 
_symmetry_space_group_name_H-M    'P1' 
_symmetry_Int_Tables_number       1 
_symmetry_cell_setting            triclinic 
loop_ 
_symmetry_equiv_pos_as_xyz 
  x,y,z 
_cell_length_a                    39.00124448 
_cell_length_b                    38.94825211910087 
_cell_length_c                    39.07084080885548 
_cell_angle_alpha                 89.64845663897334 
_cell_angle_beta                  89.97540226406612 
_cell_angle_gamma                 89.81230821427573 
loop_ 
_atom_site_label 
_atom_site_type_symbol 
_atom_site_fract_x 
_atom_site_fract_y 
_atom_site_fract_z 
_atom_site_charge 
O1          O  0.36530948  0.45017086  0.10872133    -0.86200
O2          O  0.38210160  0.43869989  0.04102187    -0.83300
C3          C  0.38477281  0.40633472  0.03741707     0.97300
O4          O  0.35972266  0.38714562  0.04380393    -0.83300
O5          O  0.29430907  0.36525634  0.06038238    -0.85900
C6          C  0.29382301  0.36115646  0.09262784     1.01800
O7          O  0.30219513  0.38529166  0.11199126    -0.78700
O8          O  0.31604608  0.45109335  0.13544185    -0.78900
C9          C  0.34842557  0.45513481  0.13559512     1.01700
O10         O  0.31498469  0.00138105  0.09051403    -0.86200
O11         O  0.32796575  0.48586380  0.02277432    -0.83300
C12         C  0.33483096  0.46957915  0.49594840     0.97300
O13         O  0.33333795  0.43698404  0.49607286    -0.83300
O14         O  0.26779007  0.41931438  0.01786072    -0.85900
C15         C  0.24326732  0.41072009  0.03693292     1.01700
O16         O  0.24698783  0.41032843  0.06928491    -0.78700
O17         O  0.26506025  0.47563797  0.08807799    -0.78900
C18         C  0.28254257  0.00188327  0.09404670     1.01700
Cr19       Cr  0.34551322  0.46683070  0.06575036     1.93700
Cr20       Cr  0.31387270  0.40420711  0.03178619     1.93200
Cr21       Cr  0.28466364  0.43071529  0.09904287     1.39100
O22         O  0.31466079  0.43399315  0.06553165    -1.24000
O23         O  0.47590527  0.08277379  0.26534451    -0.86200
O24         O  0.41096557  0.06271345  0.24667397    -0.83300
C25         C  0.41140111  0.02996468  0.24618575     0.97300
O26         O  0.41964093  0.01348037  0.27258262    -0.83300
O27         O  0.43581617  0.49703951  0.33906908    -0.85900
C28         C  0.46837478  0.49762806  0.34134951     1.01800
O29         O  0.48463139  0.02458526  0.33466214    -0.78700
O30         O  0.99988517  0.09091621  0.31533318    -0.78900
C31         C  0.00114764  0.09229540  0.28267636     1.01700
O32         O  0.45079975  0.13486613  0.31045570    -0.86200
O33         O  0.38546037  0.11053994  0.29786618    -0.83300
C34         C  0.36103637  0.09096767  0.29096895     0.97300
O35         O  0.36487303  0.05858381  0.29314058    -0.83300
O36         O  0.38487847  0.04690503  0.35952763    -0.85900
C37         C  0.40269442  0.04157590  0.38567429     1.01700
O38         O  0.43501827  0.04629060  0.38465980    -0.78700
O39         O  0.44644765  0.11331947  0.36199133    -0.78900
C40         C  0.45314275  0.13834103  0.34274475     1.01700
Cr41       Cr  0.43074026  0.09579107  0.28219716     1.93700
Cr42       Cr  0.40325881  0.03120939  0.31611958     1.93200
Cr43       Cr  0.46439879  0.06859756  0.34715102     1.39100
O44         O  0.43300509  0.06502645  0.31509833    -1.24000
O45         O  0.23139635  0.17190513  0.23203312    -0.86200
O46         O  0.16653795  0.18966124  0.25393021    -0.83300
C47         C  0.16468589  0.22230549  0.25250987     0.97300
O48         O  0.17017707  0.23758678  0.22476943    -0.83300
O49         O  0.18511981  0.25046594  0.15765187    -0.85900
C50         C  0.21773287  0.25097392  0.15529742     1.01800
O51         O  0.23463098  0.22441331  0.16220413    -0.78700
O52         O  0.25259283  0.15944894  0.18207256    -0.78900
C53         C  0.25601520  0.16114024  0.21441775     1.01700
O54         O  0.20566596  0.11552943  0.19136034    -0.86200
O55         O  0.14080115  0.13774743  0.20834882    -0.83300
C56         C  0.11544005  0.15672355  0.21399929     0.97300
O57         O  0.11708251  0.18889962  0.20799011    -0.83300
O58         O  0.13492468  0.19842820  0.14029446    -0.85900
C59         C  0.15173534  0.20404334  0.11353452     1.01700
O60         O  0.18423388  0.20054345  0.11399172    -0.78700
O61         O  0.19742732  0.13476813  0.13947858    -0.78900
C62         C  0.20623388  0.11064060  0.15911564     1.01700
Cr63       Cr  0.18603456  0.15550109  0.21923147     1.93700
Cr64       Cr  0.15376173  0.21667235  0.18266010     1.93200
Cr65       Cr  0.21514585  0.17999238  0.15143147     1.39100
O66         O  0.18482313  0.18406590  0.18445256    -1.24000
O67         O  0.05264321  0.36258493  0.38738028    -0.86200
O68         O  0.06715754  0.29763640  0.36391200    -0.83300
C69         C  0.09979620  0.29514878  0.36375800     0.97300
O70         O  0.11607763  0.29996071  0.39094892    -0.83300
O71         O  0.13207065  0.31066255  0.45890063    -0.85900
C72         C  0.13405472  0.34302912  0.46353051     1.01800
O73         O  0.10872377  0.36164313  0.45628985    -0.78700
O74         O  0.04364167  0.38346987  0.43832555    -0.78900
C75         C  0.04363811  0.38718291  0.40586251     1.01700
O76         O  0.49670979  0.33834548  0.43017456    -0.86200
O77         O  0.01569237  0.27263048  0.41129820    -0.83300
C78         C  0.03316260  0.24637388  0.40466898     0.97300
O79         O  0.06580566  0.24723338  0.40773153    -0.83300
O80         O  0.07855183  0.26211599  0.47576233    -0.85900
C81         C  0.08452428  0.27782196  0.00303093     1.01700
O82         O  0.08266143  0.31053319  0.00348574    -0.78700
O83         O  0.01776289  0.32826606  0.48092858    -0.78900
C84         C  0.49315667  0.33809724  0.46265772     1.01700
Cr85       Cr  0.03494792  0.31762619  0.40031615     1.93700
Cr86       Cr  0.09610737  0.28209403  0.43330383     1.93200
Cr87       Cr  0.06329861  0.34406437  0.46758397     1.39100
O88         O  0.06476783  0.31449083  0.43380377    -1.24000
C89         C  0.12245188  0.23099316  0.02433807    -0.10000
C90         C  0.09931279  0.25785489  0.03198244     0.06200
C91         C  0.09284224  0.26561178  0.06645992    -0.03800
C92         C  0.10966974  0.24701897  0.09230854    -0.08200
C93         C  0.13360438  0.22092017  0.08461548     0.05300
C94         C  0.13986623  0.21293970  0.05019441    -0.03300
Br95       Br  0.17099382  0.17708707  0.03723774    -0.03000
H96         H  0.12794097  0.22467097  0.99792244     0.09200
H97         H  0.10452203  0.25356909  0.11873901     0.07200
Br98       Br  0.06035752  0.30016504  0.07968404    -0.03400
C99         C  0.14644780  0.25796265  0.34107790    -0.10000
C100        C  0.11885637  0.28061355  0.33418280     0.06200
C101        C  0.10837288  0.28527147  0.30000317    -0.03800
C102        C  0.12454461  0.26670384  0.27392709    -0.08200
C103        C  0.15079552  0.24277532  0.28115796     0.05300
C104        C  0.16205950  0.23884864  0.31504124    -0.03300
Br105      Br  0.19896656  0.20830532  0.32678998    -0.03000
H106        H  0.15497552  0.25381672  0.36716836     0.09200
H107        H  0.11572290  0.27017889  0.24782975     0.07200
Br108      Br  0.07219706  0.31636766  0.28744743    -0.03400
C109        C  0.33119005  0.10290328  0.23714529    -0.10000
C110        C  0.33183564  0.10614910  0.27284554     0.06200
C111        C  0.30990492  0.12976382  0.28868116    -0.03800
C112        C  0.28674627  0.14874014  0.26885666    -0.08200
C113        C  0.28546046  0.14531193  0.23287943     0.05300
C114        C  0.30886771  0.12259018  0.21700698    -0.03300
Br115      Br  0.31277235  0.11711378  0.16832565    -0.03000
H116        H  0.34928925  0.08593017  0.22462655     0.09200
H117        H  0.26929192  0.16596205  0.28189790     0.07200
Br118      Br  0.31047924  0.13646469  0.33728967    -0.03400
C119        C  0.06322746  0.10561406  0.27803680    -0.10000
C120        C  0.03013157  0.10890013  0.26468291     0.06200
C121        C  0.02493813  0.12981693  0.23516379    -0.03800
C122        C  0.05282152  0.14581377  0.21917675    -0.08200
C123        C  0.08597243  0.14135973  0.23191164     0.05300
C124        C  0.09102892  0.12143321  0.26191196    -0.03300
Br125      Br  0.13513794  0.11620027  0.28324079    -0.03000
H126        H  0.06753359  0.09056432  0.30104888     0.09200
H127        H  0.04864549  0.16151204  0.19656819     0.07200
Br128      Br  0.98041783  0.13982474  0.21637315    -0.03400
C129        C  0.98282659  0.20720657  0.40460068    -0.10000
C130        C  0.01454980  0.21656763  0.39010972     0.06200
C131        C  0.52405858  0.20171828  0.35857327    -0.03800
C132        C  0.50245254  0.17802875  0.34265401    -0.08200
C133        C  0.47121741  0.16817691  0.35753015     0.05300
C134        C  0.96144237  0.18304586  0.38885475    -0.03300
Br135      Br  0.91832704  0.17262057  0.41004580    -0.03000
H136        H  0.97436484  0.21918460  0.42811478     0.09200
H137        H  0.51063975  0.16649459  0.31883064     0.07200
Br138      Br  0.56490002  0.21387809  0.33446416    -0.03400
C139        C  0.00774222  0.47601939  0.38593807    -0.10000
C140        C  0.48762218  0.46904070  0.35690474     0.06200
C141        C  0.48746147  0.43583711  0.34337079    -0.03800
C142        C  0.50721860  0.41016720  0.35901515    -0.08200
C143        C  0.02671074  0.41675476  0.38877774     0.05300
C144        C  0.02687123  0.45017662  0.40214657    -0.03300
Br145      Br  0.05366583  0.46232673  0.44134934    -0.03000
H146        H  0.00821805  0.50174838  0.39633597     0.09200
H147        H  0.50636889  0.38453330  0.34841970     0.07200
Br148      Br  0.46154914  0.42466690  0.30324337    -0.03400
C149        C  0.37338031  0.48393770  0.22498216    -0.10000
C150        C  0.39687128  0.01037094  0.21739551     0.06200
C151        C  0.40524560  0.01715044  0.18312107    -0.03800
C152        C  0.39011968  0.49775254  0.15715989    -0.08200
C153        C  0.36596313  0.47185778  0.16464023     0.05300
C154        C  0.35773882  0.46495301  0.19901005    -0.03300
Br155      Br  0.32651112  0.42917254  0.21190440    -0.03000
H156        H  0.36668482  0.47837237  0.25135103     0.09200
H157        H  0.39661415  0.50364365  0.13081632     0.07200
Br158      Br  0.43805884  0.05158914  0.17065197    -0.03400
C159        C  0.37158498  0.01682358  0.47442422    -0.10000
C160        C  0.35035072  0.48853428  0.46696368     0.06200
C161        C  0.34730408  0.47777787  0.43280498    -0.03800
C162        C  0.36459027  0.49575347  0.40701555    -0.08200
C163        C  0.38584006  0.02391694  0.41456528     0.05300
C164        C  0.38959113  0.03417704  0.44864701    -0.03300
Br165      Br  0.41798504  0.07220547  0.46099993    -0.03000
H166        H  0.37493298  0.02503563  0.50065780     0.09200
H167        H  0.36175316  0.48736626  0.38076650     0.07200
Br168      Br  0.31937838  0.43954462  0.41963247    -0.03400
C169        C  0.27279466  0.27763658  0.13692019    -0.10000
C170        C  0.23677404  0.28069354  0.14091044     0.06200
C171        C  0.22031454  0.31040771  0.12805036    -0.03800
C172        C  0.23971568  0.33582488  0.11193837    -0.08200
C173        C  0.27526282  0.33224356  0.10768932     0.05300
C174        C  0.29191359  0.30303650  0.12029118    -0.03300
Br175      Br  0.34038732  0.29676360  0.11463130    -0.03000
H176        H  0.28629415  0.25508925  0.14612542     0.09200
H177        H  0.22681512  0.35863029  0.10275974     0.07200
Br178      Br  0.17172228  0.31844428  0.13062643    -0.03400
C179        C  0.26359956  0.03219092  0.14585152    -0.10000
C180        C  0.26488662  0.03096636  0.11002538     0.06200
C181        C  0.24451785  0.05355590  0.09078866    -0.03800
C182        C  0.22399610  0.07778727  0.10744326    -0.08200
C183        C  0.22308192  0.07999604  0.14356101     0.05300
C184        C  0.24294842  0.05620654  0.16278813    -0.03300
Br185      Br  0.24406259  0.05480373  0.21195596    -0.03000
H186        H  0.27836346  0.01384654  0.16080477     0.09200
H187        H  0.20929295  0.09555810  0.09181681     0.07200
Br188      Br  0.24461566  0.05238321  0.04170074    -0.03400
C189        C  0.45996777  0.34890127  0.01618996    -0.10000
C190        C  0.46312187  0.35391284  0.48043143     0.06200
C191        C  0.44089784  0.37799637  0.46449180    -0.03800
C192        C  0.41697333  0.39620688  0.48414475    -0.08200
C193        C  0.41430239  0.39110750  0.01959734     0.05300
C194        C  0.43591584  0.36712642  0.03561177    -0.03300
Br195      Br  0.43431611  0.35966594  0.08416436    -0.03000
H196        H  0.47682384  0.33111346  0.02941297     0.09200
H197        H  0.39968238  0.41402183  0.47148722     0.07200
Br198      Br  0.44168256  0.38839367  0.41646459    -0.03400
C199        C  0.21123218  0.35861804  0.52172133    -0.10000
C200        C  0.21330710  0.39451526  0.02092235     0.08200
C201        C  0.19014987  0.41319332  0.00063546    -0.03800
C202        C  0.16557573  0.39580965  0.98121049    -0.08200
C203        C  0.16354364  0.35953473  0.48138079     0.05300
C204        C  0.18677460  0.34100584  0.50240842    -0.03300
Br205      Br  0.18654655  0.29195178  0.50716920    -0.03000
H206        H  0.22948527  0.34395301  0.53690935     0.09200
H207        H  0.14769948  0.41094860  0.96614165     0.07200
Br208      Br  0.19072524  0.46243584  0.99974590    -0.03400
O209        O  0.36535342  0.45011870  0.60874610    -0.86200
O210        O  0.38216174  0.43863132  0.54104492    -0.83300
C211        C  0.38481244  0.40626636  0.53742231     0.97300
O212        O  0.35974898  0.38708987  0.54379814    -0.83300
O213        O  0.29431772  0.36524450  0.56037602    -0.85900
C214        C  0.29382430  0.36114933  0.59262122     1.01800
O215        O  0.30220723  0.38528126  0.61198410    -0.78700
O216        O  0.31608331  0.45108486  0.63543389    -0.78900
C217        C  0.34846616  0.45509887  0.63561664     1.01700
O218        O  0.31503356  0.00139112  0.59045561    -0.86200
O219        O  0.32806875  0.48582704  0.52277222    -0.83300
C220        C  0.33474347  0.46962718  0.99594767     0.97300
O221        O  0.33328045  0.43702933  0.99607261    -0.83300
O222        O  0.26782928  0.41931244  0.51784822    -0.85900
C223        C  0.24329866  0.41073177  0.53691761     1.01700
O224        O  0.24701733  0.41034153  0.56927032    -0.78700
O225        O  0.26512003  0.47564327  0.58807835    -0.78900
C226        C  0.28259256  0.00189887  0.59400747     1.01700
Cr227      Cr  0.34558098  0.46678791  0.56575877     1.93700
Cr228      Cr  0.31390590  0.40418064  0.53178200     1.93200
Cr229      Cr  0.28470042  0.43071255  0.59903357     1.39100
O230        O  0.31470579  0.43397111  0.56552721    -1.24000
O231        O  0.47591703  0.08274990  0.76542755    -0.86200
O232        O  0.41097682  0.06270424  0.74669993    -0.83300
C233        C  0.41136823  0.02995416  0.74624686     0.97300
O234        O  0.41955842  0.01347226  0.77266090    -0.83300
O235        O  0.43579093  0.49710646  0.83913419    -0.85900
C236        C  0.46835083  0.49770115  0.84143652     1.01800
O237        O  0.48458423  0.02464851  0.83477497    -0.78700
O238        O  0.99986495  0.09095561  0.81538585    -0.78900
C239        C  0.00112966  0.09233193  0.78272885     1.01700
O240        O  0.45076814  0.13489190  0.81047330    -0.86200
O241        O  0.38544125  0.11058512  0.79782418    -0.83300
C242        C  0.36100716  0.09101005  0.79096560     0.97300
O243        O  0.36483549  0.05862715  0.79317571    -0.83300
O244        O  0.38481951  0.04700475  0.85957790    -0.85900
C245        C  0.40261879  0.04167614  0.88573455     1.01700
O246        O  0.43494427  0.04637212  0.88473053    -0.78700
O247        O  0.44635621  0.11338154  0.86201808    -0.78900
C248        C  0.45307389  0.13838887  0.84276331     1.01700
Cr249      Cr  0.43073391  0.09580057  0.78221819     1.93700
Cr250      Cr  0.40320388  0.03125813  0.81618682     1.93200
Cr251      Cr  0.46433746  0.06866160  0.84722177     1.39100
O252        O  0.43296453  0.06506281  0.81514596    -1.24000
O253        O  0.23135540  0.17184028  0.73199262    -0.86200
O254        O  0.16650089  0.18963046  0.75389381    -0.83300
C255        C  0.16465032  0.22227806  0.75249476     0.97300
O256        O  0.17015346  0.23757538  0.72476458    -0.83300
O257        O  0.18508449  0.25049372  0.65764461    -0.85900
C258        C  0.21769743  0.25099723  0.65529145     1.01800
O259        O  0.23459046  0.22443643  0.66220841    -0.78700
O260        O  0.25255369  0.15945284  0.68201201    -0.78900
C261        C  0.25597238  0.16109857  0.71435966     1.01700
O262        O  0.20561517  0.11552577  0.69124647    -0.86200
O263        O  0.14073458  0.13775405  0.70827723    -0.83300
C264        C  0.11538722  0.15674204  0.71395788     0.97300
O265        O  0.11704539  0.18891970  0.70796765    -0.83300
O266        O  0.13488741  0.19846539  0.64027676    -0.85900
C267        C  0.15170067  0.20408571  0.61352045     1.01700
O268        O  0.18419884  0.20060001  0.61397192    -0.78700
O269        O  0.19737376  0.13482912  0.63939479    -0.78900
C270        C  0.20619885  0.11068049  0.65899249     1.01700
Cr271      Cr  0.18598413  0.15547767  0.71916752     1.93700
Cr272      Cr  0.15372821  0.21669088  0.68264533     1.93200
Cr273      Cr  0.21510649  0.18002792  0.65139299     1.39100
O274        O  0.18478421  0.18407715  0.68441626    -1.24000
O275        O  0.05260241  0.36261445  0.88738937    -0.86200
O276        O  0.06712815  0.29766443  0.86389705    -0.83300
C277        C  0.09976673  0.29517531  0.86373506     0.97300
O278        O  0.11605371  0.30000239  0.89091989    -0.83300
O279        O  0.13207208  0.31066934  0.95887398    -0.85900
C280        C  0.13404697  0.34303152  0.96352057     1.01800
O281        O  0.10870837  0.36164190  0.95629841    -0.78700
O282        O  0.04362221  0.38347669  0.93834908    -0.78900
C283        C  0.04359917  0.38720371  0.90588568     1.01700
O284        O  0.49666834  0.33840191  0.93018682    -0.86200
O285        O  0.01569088  0.27264391  0.91130369    -0.83300
C286        C  0.03316572  0.24639194  0.90467015     0.97300
O287        O  0.06580897  0.24725581  0.90771325    -0.83300
O288        O  0.07859917  0.26209771  0.97574293    -0.85900
C289        C  0.08449269  0.27784596  0.50304288     1.01700
O290        O  0.08266328  0.31055690  0.50348051    -0.78700
O291        O  0.01774550  0.32826654  0.98094764    -0.78900
C292        C  0.49310070  0.33813784  0.96266829     1.01700
Cr293      Cr  0.03492883  0.31764325  0.90032160     1.93700
Cr294      Cr  0.09611082  0.28211022  0.93327985     1.93200
Cr295      Cr  0.06328661  0.34405897  0.96759731     1.39100
O296        O  0.06475628  0.31449806  0.93380546    -1.24000
C297        C  0.12219837  0.23084602  0.52436443    -0.10000
C298        C  0.09925976  0.25788317  0.53200404     0.06200
C299        C  0.09300986  0.26583652  0.56647880    -0.03800
C300        C  0.10985141  0.24725680  0.59232231    -0.08200
C301        C  0.13357811  0.22097762  0.58462214     0.05300
C302        C  0.13962010  0.21279693  0.55021465    -0.03300
Br303      Br  0.17043933  0.17666860  0.53728867    -0.03000
H304        H  0.12752753  0.22437341  0.49795352     0.09200
H305        H  0.10487804  0.25394752  0.61875057     0.07200
Br306      Br  0.06081904  0.30065560  0.57972799    -0.03400
C307        C  0.14634170  0.25787764  0.84108281    -0.10000
C308        C  0.11881905  0.28060631  0.83416921     0.06200
C309        C  0.10839087  0.28531383  0.79997966    -0.03800
C310        C  0.12456110  0.26673559  0.77390785    -0.08200
C311        C  0.15074998  0.24273933  0.78115120     0.05300
C312        C  0.16194358  0.23874569  0.81505176    -0.03300
Br313      Br  0.19873775  0.20808137  0.82683930    -0.03000
H314        H  0.15481779  0.25368589  0.86718337     0.09200
H315        H  0.11578558  0.27025939  0.74780114     0.07200
Br316      Br  0.07229751  0.31649860  0.78740709    -0.03400
C317        C  0.33086927  0.10256076  0.73721658    -0.10000
C318        C  0.33177609  0.10617923  0.77287204     0.06200
C319        C  0.31010793  0.13011553  0.78859835    -0.03800
C320        C  0.28694913  0.14904457  0.76872809    -0.08200
C321        C  0.28542298  0.14526533  0.73280221     0.05300
C322        C  0.30856572  0.12221025  0.71701955    -0.03300
Br323      Br  0.31215377  0.11624528  0.66837640    -0.03000
H324        H  0.34877542  0.08533416  0.72476096     0.09200
H325        H  0.26969126  0.16652405  0.78169102     0.07200
Br326      Br  0.31103775  0.13732485  0.83712629    -0.03400
C327        C  0.06320453  0.10571768  0.77809089    -0.10000
C328        C  0.03010578  0.10895177  0.76472830     0.06200
C329        C  0.02489786  0.12983378  0.73518663    -0.03800
C330        C  0.05277239  0.14581232  0.71916433    -0.08200
C331        C  0.08592736  0.14139562  0.73190046     0.05300
C332        C  0.09099465  0.12153736  0.76194249    -0.03300
Br333      Br  0.13510278  0.11641416  0.78329552    -0.03000
H334        H  0.06752172  0.09071112  0.80112849     0.09200
H335        H  0.04858494  0.16147470  0.69653325     0.07200
Br336      Br  0.98036532  0.13983823  0.71642335    -0.03400
C337        C  0.98286091  0.20719927  0.90466115    -0.10000
C338        C  0.01455610  0.21658415  0.89012802     0.06200
C339        C  0.52397096  0.20178511  0.85855799    -0.03800
C340        C  0.50236103  0.17809650  0.84264746    -0.08200
C341        C  0.47114443  0.16822499  0.85754808     0.05300
C342        C  0.96146550  0.18304329  0.88892834    -0.03300
Br343      Br  0.91838997  0.17257834  0.91018125    -0.03000
H344        H  0.97442925  0.21915649  0.92819654     0.09200
H345        H  0.51053301  0.16657692  0.81881210     0.07200
Br346      Br  0.56478925  0.21396447  0.83442070    -0.03400
C347        C  0.00763733  0.47603860  0.88603833    -0.10000
C348        C  0.48760296  0.46911088  0.85698990     0.06200
C349        C  0.48746090  0.43591574  0.84343554    -0.03800
C350        C  0.50722088  0.41024139  0.85907034    -0.08200
C351        C  0.02665273  0.41678276  0.88882027     0.05300
C352        C  0.02679573  0.45019520  0.90221418    -0.03300
Br353      Br  0.05362307  0.46233796  0.94139650    -0.03000
H354        H  0.00810598  0.50176035  0.89645431     0.09200
H355        H  0.50637689  0.38461298  0.84846109     0.07200
Br356      Br  0.46158038  0.42476685  0.80328253    -0.03400
C357        C  0.37280413  0.48444298  0.72501931    -0.10000
C358        C  0.39681486  0.01036714  0.71747650     0.06200
C359        C  0.40587520  0.01652717  0.68327182    -0.03800
C360        C  0.39074404  0.49713364  0.65728899    -0.08200
C361        C  0.36601683  0.47175808  0.66471489     0.05300
C362        C  0.35721228  0.46540422  0.69905587    -0.03300
Br363      Br  0.32523773  0.43029936  0.71197988    -0.03000
H364        H  0.36567155  0.47930899  0.75135916     0.09200
H365        H  0.39771917  0.50261108  0.63098268     0.07200
Br366      Br  0.43960070  0.05012510  0.67096481    -0.03400
C367        C  0.37139021  0.01697510  0.97445736    -0.10000
C368        C  0.35025089  0.48860402  0.96696435     0.06200
C369        C  0.34728323  0.47781166  0.93280862    -0.03800
C370        C  0.36457375  0.49580075  0.90702975    -0.08200
C371        C  0.38574638  0.02402186  0.91461696     0.05300
C372        C  0.38940545  0.03433719  0.94869158    -0.03300
Br373      Br  0.41770176  0.07243684  0.96104813    -0.03000
H374        H  0.37467311  0.02522870  0.00068617     0.09200
H375        H  0.36179784  0.48738364  0.88078384     0.07200
Br376      Br  0.31947653  0.43949668  0.91962217    -0.03400
C377        C  0.27275641  0.27761115  0.63684904    -0.10000
C378        C  0.23674460  0.28070489  0.64089019     0.06200
C379        C  0.22029917  0.31044428  0.62807072    -0.03800
C380        C  0.23971050  0.33586266  0.61197260    -0.08200
C381        C  0.27524939  0.33224709  0.60768065     0.05300
C382        C  0.29188161  0.30300386  0.62021956    -0.03300
Br383      Br  0.34033771  0.29667177  0.61447579    -0.03000
H384        H  0.28624375  0.25504005  0.64601226     0.09200
H385        H  0.22682493  0.35869180  0.60283279     0.07200
Br386      Br  0.17171413  0.31851236  0.63067993    -0.03400
C387        C  0.26307509  0.03182936  0.64582023    -0.10000
C388        C  0.26494843  0.03097832  0.61000433     0.06200
C389        C  0.24517487  0.05401137  0.59067944    -0.03800
C390        C  0.22460190  0.07825175  0.60726037    -0.08200
C391        C  0.22309808  0.08007960  0.64338994     0.05300
C392        C  0.24243127  0.05590643  0.66268085    -0.03300
Br393      Br  0.24285226  0.05408191  0.71184761    -0.03000
H394        H  0.27740826  0.01317817  0.66081519     0.09200
H395        H  0.21034557  0.09633316  0.59157498     0.07200
Br396      Br  0.24613670  0.05340298  0.54158655    -0.03400
C397        C  0.46005973  0.34889067  0.51619625    -0.10000
C398        C  0.46306997  0.35396805  0.98043530     0.06200
C399        C  0.44089278  0.37810324  0.96450687    -0.03800
C400        C  0.41698255  0.39632821  0.98416255    -0.08200
C401        C  0.41433449  0.39103309  0.51959021     0.05300
C402        C  0.43600334  0.36711132  0.53561751    -0.03300
Br403      Br  0.43448373  0.35973682  0.58418452    -0.03000
H404        H  0.47695502  0.33114726  0.52942854     0.09200
H405        H  0.39972570  0.41418235  0.97151246     0.07200
Br406      Br  0.44171105  0.38854102  0.91649019    -0.03400
C407        C  0.21127254  0.35859264  0.02165130    -0.10000
C408        C  0.21332888  0.39453572  0.52090699     0.08200
C409        C  0.19021698  0.41320166  0.50055469    -0.03800
C410        C  0.16563805  0.39580826  0.48114030    -0.08200
C411        C  0.16353564  0.35953342  0.98137025     0.05300
C412        C  0.18682624  0.34098849  0.00231799    -0.03300
Br413      Br  0.18671945  0.29191986  0.00691903    -0.03000
H414        H  0.22956778  0.34392138  0.03678226     0.09200
H415        H  0.14779889  0.41093728  0.46601732     0.07200
Br416      Br  0.19084978  0.46244312  0.49957503    -0.03400
O417        O  0.36531374  0.95013295  0.10875387    -0.86200
O418        O  0.38212592  0.93868541  0.04105699    -0.83300
C419        C  0.38479618  0.90632058  0.03744844     0.97300
O420        O  0.35974377  0.88713346  0.04383142    -0.83300
O421        O  0.29432467  0.86524634  0.06038714    -0.85900
C422        C  0.29383108  0.86114346  0.09263167     1.01800
O423        O  0.30219840  0.88527604  0.11200013    -0.78700
O424        O  0.31604589  0.95107224  0.13546417    -0.78900
C425        C  0.34842605  0.95510655  0.13562271     1.01700
O426        O  0.31496799  0.50139909  0.09047711    -0.86200
O427        O  0.32800097  0.98585973  0.02280945    -0.83300
C428        C  0.33485407  0.96957080  0.49594980     0.97300
O429        O  0.33335585  0.93697546  0.49607890    -0.83300
O430        O  0.26781822  0.91930648  0.01786486    -0.85900
C431        C  0.24329009  0.91071336  0.03693079     1.01700
O432        O  0.24700188  0.91032141  0.06928385    -0.78700
O433        O  0.26507378  0.97562873  0.08809095    -0.78900
C434        C  0.28252771  0.50189588  0.09402138     1.01700
Cr435      Cr  0.34553345  0.96681320  0.06578503     1.93700
Cr436      Cr  0.31389708  0.90419876  0.03180239     1.93200
Cr437      Cr  0.28467107  0.93070165  0.09905434     1.39100
O438        O  0.31467613  0.93398131  0.06555062    -1.24000
O439        O  0.47590166  0.58275856  0.26536130    -0.86200
O440        O  0.41096434  0.56270561  0.24667784    -0.83300
C441        C  0.41139642  0.52995684  0.24619027     0.97300
O442        O  0.41962709  0.51347180  0.27259002    -0.83300
O443        O  0.43583234  0.99703909  0.33905691    -0.85900
C444        C  0.46839106  0.99762615  0.34133405     1.01800
O445        O  0.48461508  0.52458808  0.33468243    -0.78700
O446        O  0.99988240  0.59091981  0.31532052    -0.78900
C447        C  0.00114646  0.59229925  0.28266360     1.01700
O448        O  0.45079143  0.63486216  0.31045963    -0.86200
O449        O  0.38545316  0.61053830  0.29785971    -0.83300
C450        C  0.36102863  0.59096539  0.29096532     0.97300
O451        O  0.36486373  0.55858169  0.29314053    -0.83300
O452        O  0.38485980  0.54691034  0.35952884    -0.85900
C453        C  0.40267096  0.54158398  0.38567889     1.01700
O454        O  0.43499482  0.54629646  0.38466966    -0.78700
O455        O  0.44642564  0.61332335  0.36199711    -0.78900
C456        C  0.45312684  0.63834187  0.34274876     1.01700
Cr457      Cr  0.43073495  0.59578446  0.28220165     1.93700
Cr458      Cr  0.40324475  0.53120793  0.31612551     1.93200
Cr459      Cr  0.46438021  0.56859980  0.34716451     1.39100
O460        O  0.43299218  0.56502410  0.31510612    -1.24000
O461        O  0.23138984  0.67189474  0.23202810    -0.86200
O462        O  0.16652983  0.68965124  0.25392357    -0.83300
C463        C  0.16467896  0.72229620  0.25250737     0.97300
O464        O  0.17017188  0.73758059  0.22476898    -0.83300
O465        O  0.18512057  0.75046812  0.15765627    -0.85900
C466        C  0.21773376  0.75097592  0.15530524     1.01800
O467        O  0.23463150  0.72441508  0.16221138    -0.78700
O468        O  0.25258897  0.65944683  0.18206611    -0.78900
C469        C  0.25600931  0.66113264  0.21441173     1.01700
O470        O  0.20565992  0.61553012  0.19134079    -0.86200
O471        O  0.14079760  0.63774528  0.20832538    -0.83300
C472        C  0.11543711  0.65671941  0.21398185     0.97300
O473        O  0.11707916  0.68889652  0.20797938    -0.83300
O474        O  0.13492797  0.69843230  0.14028583    -0.85900
C475        C  0.15174066  0.70405395  0.11352839     1.01700
O476        O  0.18423920  0.70055804  0.11398865    -0.78700
O477        O  0.19742115  0.63478119  0.13946410    -0.78900
C478        C  0.20622637  0.61064891  0.15909499     1.01700
Cr479      Cr  0.18602860  0.65549576  0.21921920     1.93700
Cr480      Cr  0.15375984  0.71667228  0.18265586     1.93200
Cr481      Cr  0.21514558  0.67999864  0.15142697     1.39100
O482        O  0.18482142  0.68406716  0.18444648    -1.24000
O483        O  0.05263413  0.86258054  0.38738636    -0.86200
O484        O  0.06715570  0.79763455  0.36390984    -0.83300
C485        C  0.09979472  0.79514865  0.36375490     0.97300
O486        O  0.11607622  0.79996246  0.39094517    -0.83300
O487        O  0.13207092  0.81065972  0.45889545    -0.85900
C488        C  0.13405253  0.84302617  0.46352710     1.01800
O489        O  0.10871805  0.86163817  0.45629383    -0.78700
O490        O  0.04363369  0.88345907  0.43833465    -0.78900
C491        C  0.04362781  0.88717561  0.40587216     1.01700
O492        O  0.49669989  0.83834541  0.43018621    -0.86200
O493        O  0.01569500  0.77261871  0.41129615    -0.83300
C494        C  0.03316716  0.74636451  0.40466215     0.97300
O495        O  0.06581044  0.74722657  0.40772380    -0.83300
O496        O  0.07856071  0.76210441  0.47575728    -0.85900
C497        C  0.08452786  0.77783874  0.00303442     1.01700
O498        O  0.08267005  0.81054991  0.00348771    -0.78700
O499        O  0.01776087  0.82824934  0.48093348    -0.78900
C500        C  0.49314514  0.83809236  0.46266926     1.01700
Cr501      Cr  0.03494490  0.81761800  0.40031820     1.93700
Cr502      Cr  0.09610987  0.78208902  0.43329894     1.93200
Cr503      Cr  0.06329527  0.84405275  0.46758770     1.39100
O504        O  0.06476644  0.81448235  0.43380429    -1.24000
C505        C  0.12248100  0.73103120  0.02433311    -0.10000
C506        C  0.09932133  0.75787302  0.03198202     0.06200
C507        C  0.09283211  0.76561039  0.06645987    -0.03800
C508        C  0.10965741  0.74701312  0.09230622    -0.08200
C509        C  0.13361129  0.72093272  0.08461002     0.05300
C510        C  0.13989695  0.71297697  0.05018708    -0.03300
Br511      Br  0.17106340  0.67716124  0.03722149    -0.03000
H512        H  0.12798535  0.72472715  0.99791616     0.09200
H513        H  0.10449400  0.75354711  0.11873768     0.07200
Br514      Br  0.06032720  0.80014387  0.07968547    -0.03400
C515        C  0.14643911  0.75795065  0.34107781    -0.10000
C516        C  0.11885535  0.78061062  0.33418101     0.06200
C517        C  0.10837894  0.78527563  0.30000042    -0.03800
C518        C  0.12454725  0.76670385  0.27392502    -0.08200
C519        C  0.15078928  0.74276548  0.28115704     0.05300
C520        C  0.16204860  0.73883375  0.31504149    -0.03300
Br521      Br  0.19894766  0.70828137  0.32679199    -0.03000
H522        H  0.15496234  0.75380056  0.36716917     0.09200
H523        H  0.11573036  0.77018483  0.24782679     0.07200
Br524      Br  0.07221901  0.81638953  0.28744315    -0.03400
C525        C  0.33116553  0.60287599  0.23714633    -0.10000
C526        C  0.33182651  0.60614508  0.27284389     0.06200
C527        C  0.30991166  0.62977880  0.28867331    -0.03800
C528        C  0.28675342  0.64875222  0.26884615    -0.08200
C529        C  0.28545365  0.64530278  0.23287195     0.05300
C530        C  0.30884442  0.62256042  0.21700452    -0.03300
Br531      Br  0.31273027  0.61705392  0.16832529    -0.03000
H532        H  0.34925322  0.58588766  0.22463170     0.09200
H533        H  0.26931106  0.66599001  0.28188277     0.07200
Br534      Br  0.31050762  0.63651018  0.33727720    -0.03400
C535        C  0.06322994  0.60559177  0.27800922    -0.10000
C536        C  0.03013039  0.60890255  0.26467123     0.06200
C537        C  0.02493427  0.62983572  0.23516440    -0.03800
C538        C  0.05281785  0.64582904  0.21917531    -0.08200
C539        C  0.08597188  0.64135196  0.23189385     0.05300
C540        C  0.09103248  0.62140422  0.26188005    -0.03300
Br541      Br  0.13514926  0.61613065  0.28318416    -0.03000
H542        H  0.06753808  0.59052606  0.30101082     0.09200
H543        H  0.04863944  0.66154226  0.19657738     0.07200
Br544      Br  0.98041102  0.63986755  0.21639345    -0.03400
C545        C  0.98283691  0.70719006  0.40459837    -0.10000
C546        C  0.01455478  0.71655834  0.39010063     0.06200
C547        C  0.52404835  0.70171077  0.35858705    -0.03800
C548        C  0.50244385  0.67802079  0.34266625    -0.08200
C549        C  0.47120180  0.66817788  0.35753382     0.05300
C550        C  0.96144872  0.68303353  0.38885119    -0.03300
Br551      Br  0.91833747  0.67260567  0.41004901    -0.03000
H552        H  0.97438117  0.71916102  0.42811824     0.09200
H553        H  0.51063696  0.66648009  0.31884794     0.07200
Br554      Br  0.56489742  0.71386221  0.33448634    -0.03400
C555        C  0.00772895  0.97601346  0.38595933    -0.10000
C556        C  0.48763657  0.96903998  0.35689535     0.06200
C557        C  0.48747128  0.93583276  0.34336998    -0.03800
C558        C  0.50721986  0.91016241  0.35902452    -0.08200
C559        C  0.02669731  0.91674846  0.38879252     0.05300
C560        C  0.02685719  0.95016867  0.40216555    -0.03300
Br561      Br  0.05364920  0.96231382  0.44137172    -0.03000
H562        H  0.00820573  0.00174159  0.39635919     0.09200
H563        H  0.50636733  0.88452631  0.34843435     0.07200
Br564      Br  0.46156409  0.92465729  0.30324077    -0.03400
C565        C  0.37339802  0.98392740  0.22499588    -0.10000
C566        C  0.39687363  0.51036604  0.21739359     0.06200
C567        C  0.40527169  0.51713717  0.18312320    -0.03800
C568        C  0.39009269  0.99775675  0.15716600    -0.08200
C569        C  0.36595942  0.97184434  0.16465918     0.05300
C570        C  0.35775609  0.96493293  0.19903178    -0.03300
Br571      Br  0.32656095  0.92912852  0.21193844    -0.03000
H572        H  0.36672021  0.97835589  0.25136792     0.09200
H573        H  0.39656904  0.00365251  0.13081896     0.07200
Br574      Br  0.43811490  0.55155395  0.17067267    -0.03400
C575        C  0.37154328  0.51684481  0.47442351    -0.10000
C576        C  0.35038200  0.98852068  0.46696464     0.06200
C577        C  0.34732548  0.97777111  0.43280472    -0.03800
C578        C  0.36461110  0.99574644  0.40701397    -0.08200
C579        C  0.38581154  0.52392916  0.41456775     0.05300
C580        C  0.38955196  0.53419706  0.44864802    -0.03300
Br581      Br  0.41793861  0.57223076  0.46100137    -0.03000
H582        H  0.37488427  0.52506183  0.50065650     0.09200
H583        H  0.36176514  0.98736468  0.38076423     0.07200
Br584      Br  0.31938141  0.93955168  0.41963238    -0.03400
C585        C  0.27280066  0.77764983  0.13696508    -0.10000
C586        C  0.23677517  0.78069394  0.14091877     0.06200
C587        C  0.22031304  0.81038867  0.12801724    -0.03800
C588        C  0.23971625  0.83579815  0.11189704    -0.08200
C589        C  0.27526887  0.83222983  0.10768565     0.05300
C590        C  0.29192275  0.80304402  0.12033205    -0.03300
Br591      Br  0.34040569  0.79679258  0.11472690    -0.03000
H592        H  0.28630217  0.75511729  0.14620386     0.09200
H593        H  0.22681331  0.85858962  0.10268671     0.07200
Br594      Br  0.17171539  0.81840851  0.13054691    -0.03400
C595        C  0.26354433  0.53216692  0.14582863    -0.10000
C596        C  0.26487508  0.53097663  0.11000298     0.06200
C597        C  0.24455571  0.55360508  0.09076103    -0.03800
C598        C  0.22403157  0.57783527  0.10741323    -0.08200
C599        C  0.22307343  0.58000909  0.14353279     0.05300
C600        C  0.24289767  0.55618696  0.16276247    -0.03300
Br601      Br  0.24396493  0.55474813  0.21193053    -0.03000
H602        H  0.27827439  0.51379585  0.16078271     0.09200
H603        H  0.20936433  0.59563375  0.09178433     0.07200
Br604      Br  0.24472448  0.55248604  0.04167163    -0.03400
C605        C  0.45997936  0.84887555  0.01620010    -0.10000
C606        C  0.46311192  0.85390683  0.48044534     0.06200
C607        C  0.44089570  0.87800155  0.46451242    -0.03800
C608        C  0.41697660  0.89621309  0.48417038    -0.08200
C609        C  0.41432421  0.89109309  0.01962404     0.05300
C610        C  0.43593257  0.86710053  0.03562929    -0.03300
Br611      Br  0.43433391  0.85962385  0.08417943    -0.03000
H612        H  0.47683247  0.83107961  0.02941638     0.09200
H613        H  0.39969152  0.91403723  0.47151769     0.07200
Br614      Br  0.44168450  0.88841259  0.41648826    -0.03400
C615        C  0.21124360  0.85861718  0.52169800    -0.10000
C616        C  0.21333263  0.89450996  0.02091334     0.08200
C617        C  0.19015994  0.91319475  0.00065061    -0.03800
C618        C  0.16558039  0.89581674  0.98122686    -0.08200
C619        C  0.16354499  0.85953343  0.48136984     0.05300
C620        C  0.18678386  0.84100449  0.50238840    -0.03300
Br621      Br  0.18656458  0.79194906  0.50714016    -0.03000
H622        H  0.22950056  0.84395252  0.53688134     0.09200
H623        H  0.14769302  0.91096085  0.96617635     0.07200
Br624      Br  0.19072066  0.96243780  0.99979510    -0.03400
O625        O  0.36533669  0.95012424  0.60876314    -0.86200
O626        O  0.38216605  0.93862785  0.54106731    -0.83300
C627        C  0.38481533  0.90626268  0.53744817     0.97300
O628        O  0.35975037  0.88708816  0.54382365    -0.83300
O629        O  0.29431218  0.86524697  0.56038563    -0.85900
C630        C  0.29380759  0.86115749  0.59263166     1.01800
O631        O  0.30218654  0.88529237  0.61199250    -0.78700
O632        O  0.31605851  0.95109910  0.63543477    -0.78900
C633        C  0.34844169  0.95510928  0.63562821     1.01700
O634        O  0.31504012  0.50138546  0.59046324    -0.86200
O635        O  0.32808677  0.98582409  0.52276947    -0.83300
C636        C  0.33477637  0.96962494  0.99598081     0.97300
O637        O  0.33331285  0.93702712  0.99610124    -0.83300
O638        O  0.26783962  0.91930792  0.51783840    -0.85900
C639        C  0.24330293  0.91073250  0.53690240     1.01700
O640        O  0.24701204  0.91034810  0.56925621    -0.78700
O641        O  0.26511310  0.97565100  0.58805719    -0.78900
C642        C  0.28259982  0.50189260  0.59402284     1.01700
Cr643      Cr  0.34558034  0.96678913  0.56576606     1.93700
Cr644      Cr  0.31391161  0.90417783  0.53178943     1.93200
Cr645      Cr  0.28468678  0.93072226  0.59902734     1.39100
O646        O  0.31470255  0.93397429  0.56552939    -1.24000
O647        O  0.47592201  0.58276256  0.76541090    -0.86200
O648        O  0.41098569  0.56271187  0.74667784    -0.83300
C649        C  0.41138927  0.52996195  0.74622320     0.97300
O650        O  0.41958534  0.51348358  0.77263740    -0.83300
O651        O  0.43578016  0.99710059  0.83915372    -0.85900
C652        C  0.46834074  0.99769053  0.84144367     1.01800
O653        O  0.48459153  0.52466243  0.83477465    -0.78700
O654        O  0.99985968  0.59095286  0.81541825    -0.78900
C655        C  0.00113273  0.59232291  0.78276135     1.01700
O656        O  0.45077084  0.63490440  0.81045098    -0.86200
O657        O  0.38544368  0.61058943  0.79780365    -0.83300
C658        C  0.36101207  0.59101232  0.79094207     0.97300
O659        O  0.36484498  0.55862906  0.79314552    -0.83300
O660        O  0.38481525  0.54699993  0.85954755    -0.85900
C661        C  0.40260885  0.54167776  0.88570907     1.01700
O662        O  0.43493351  0.54638538  0.88471375    -0.78700
O663        O  0.44634876  0.61339789  0.86199560    -0.78900
C664        C  0.45307544  0.63840302  0.84274067     1.01700
Cr665      Cr  0.43073795  0.59580974  0.78219838     1.93700
Cr666      Cr  0.40321440  0.53126171  0.81616046     1.93200
Cr667      Cr  0.46433465  0.56867545  0.84720880     1.39100
O668        O  0.43296880  0.56507170  0.81512715    -1.24000
O669        O  0.23135239  0.67185553  0.73199535    -0.86200
O670        O  0.16649881  0.68962963  0.75390425    -0.83300
C671        C  0.16464440  0.72227639  0.75250371     0.97300
O672        O  0.17014233  0.73757327  0.72477251    -0.83300
O673        O  0.18505780  0.75049870  0.65765147    -0.85900
C674        C  0.21767066  0.75100817  0.65530057     1.01800
O675        O  0.23456697  0.72444945  0.66221726    -0.78700
O676        O  0.25254903  0.65946986  0.68201497    -0.78900
C677        C  0.25596970  0.66111653  0.71436180     1.01700
O678        O  0.20561909  0.61553082  0.69125644    -0.86200
O679        O  0.14073393  0.63774695  0.70830008    -0.83300
C680        C  0.11538462  0.65673332  0.71398035     0.97300
O681        O  0.11703767  0.68891029  0.70798391    -0.83300
O682        O  0.13486865  0.69846152  0.64028909    -0.85900
C683        C  0.15168156  0.70407982  0.61353182     1.01700
O684        O  0.18418015  0.70059842  0.61398254    -0.78700
O685        O  0.19738032  0.63482844  0.63940109    -0.78900
C686        C  0.20620736  0.61068294  0.65900276     1.01700
Cr687      Cr  0.18598335  0.65548037  0.71917783     1.93700
Cr688      Cr  0.15371228  0.71668754  0.68265627     1.93200
Cr689      Cr  0.21509558  0.68003527  0.65140010     1.39100
O690        O  0.18477243  0.68407666  0.68442370    -1.24000
O691        O  0.05261438  0.86262141  0.88739169    -0.86200
O692        O  0.06712976  0.79767089  0.86390240    -0.83300
C693        C  0.09976783  0.79517862  0.86374017     0.97300
O694        O  0.11605620  0.80000570  0.89092395    -0.83300
O695        O  0.13207630  0.81067829  0.95887496    -0.85900
C696        C  0.13405516  0.84304077  0.96351954     1.01800
O697        O  0.10871783  0.86165350  0.95629762    -0.78700
O698        O  0.04362978  0.88348876  0.93834795    -0.78900
C699        C  0.04361045  0.88721274  0.90588428     1.01700
O700        O  0.49667247  0.83839196  0.93019054    -0.86200
O701        O  0.01569061  0.77265769  0.91130884    -0.83300
C702        C  0.03316276  0.74640366  0.90467669     0.97300
O703        O  0.06580618  0.74726470  0.90772099    -0.83300
O704        O  0.07859710  0.76211317  0.97574869    -0.85900
C705        C  0.08449621  0.77783387  0.50303956     1.01700
O706        O  0.08266419  0.81054439  0.50347914    -0.78700
O707        O  0.01775724  0.82827721  0.98094982    -0.78900
C708        C  0.49310870  0.83812333  0.96267272     1.01700
Cr709      Cr  0.03493365  0.81765437  0.90032535     1.93700
Cr710      Cr  0.09611210  0.78211883  0.93328461     1.93200
Cr711      Cr  0.06329524  0.84407245  0.96759786     1.39100
O712        O  0.06476171  0.81450924  0.93380810    -1.24000
C713        C  0.12219271  0.73083118  0.52437044    -0.10000
C714        C  0.09925587  0.75787135  0.53200417     0.06200
C715        C  0.09300120  0.76582887  0.56647730    -0.03800
C716        C  0.10983419  0.74724786  0.59232522    -0.08200
C717        C  0.13355917  0.72096570  0.58463081     0.05300
C718        C  0.13960724  0.71278207  0.55022518    -0.03300
Br719      Br  0.17042735  0.67665100  0.53730815    -0.03000
H720        H  0.12752638  0.72435632  0.49796108     0.09200
H721        H  0.10485823  0.75394209  0.61875206     0.07200
Br722      Br  0.06082022  0.80066040  0.57971868    -0.03400
C723        C  0.14633972  0.75787776  0.84108982    -0.10000
C724        C  0.11881705  0.78060621  0.83417540     0.06200
C725        C  0.10838421  0.78530878  0.79998683    -0.03800
C726        C  0.12455373  0.76672998  0.77391586    -0.08200
C727        C  0.15074455  0.74273638  0.78115966     0.05300
C728        C  0.16193918  0.73874314  0.81505977    -0.03300
Br729      Br  0.19872924  0.70807392  0.82684847    -0.03000
H730        H  0.15481693  0.75368774  0.86719018     0.09200
H731        H  0.11577574  0.77025066  0.74780969     0.07200
Br732      Br  0.07228303  0.81648444  0.78741391    -0.03400
C733        C  0.33089653  0.60260692  0.73719072    -0.10000
C734        C  0.33177999  0.60618256  0.77285133     0.06200
C735        C  0.31008617  0.63008438  0.78859422    -0.03800
C736        C  0.28692637  0.64902187  0.76873315    -0.08200
C737        C  0.28542177  0.64528304  0.73280164     0.05300
C738        C  0.30858933  0.62226317  0.71700450    -0.03300
Br739      Br  0.31220455  0.61635347  0.66835605    -0.03000
H740        H  0.34882155  0.58540808  0.72472469     0.09200
H741        H  0.26964950  0.66647359  0.78170786     0.07200
Br742      Br  0.31098093  0.63723408  0.83713186    -0.03400
C743        C  0.06320727  0.60571830  0.77812723    -0.10000
C744        C  0.03010833  0.60894646  0.76476368     0.06200
C745        C  0.02489781  0.62982662  0.73522133    -0.03800
C746        C  0.05277096  0.64580168  0.71919365    -0.08200
C747        C  0.08592690  0.64138780  0.73192803     0.05300
C748        C  0.09099579  0.62153890  0.76197603    -0.03300
Br749      Br  0.13510276  0.61643503  0.78333515    -0.03000
H750        H  0.06752563  0.59071669  0.80116795     0.09200
H751        H  0.04858135  0.66146101  0.69656087     0.07200
Br752      Br  0.98036232  0.63983724  0.71646773    -0.03400
C753        C  0.98284712  0.70722323  0.90465899    -0.10000
C754        C  0.01455010  0.71659675  0.89013482     0.06200
C755        C  0.52398629  0.70178893  0.85853890    -0.03800
C756        C  0.50237214  0.67810424  0.84262612    -0.08200
C757        C  0.47115346  0.66823604  0.85752578     0.05300
C758        C  0.96145215  0.68306655  0.88892600    -0.03300
Br759      Br  0.91836391  0.67262207  0.91016290    -0.03000
H760        H  0.97440891  0.71919011  0.92818709     0.09200
H761        H  0.51054135  0.66658654  0.81878891     0.07200
Br762      Br  0.56480166  0.71397126  0.83439831    -0.03400
C763        C  0.00766336  0.97604722  0.88600965    -0.10000
C764        C  0.48759099  0.96910163  0.85699655     0.06200
C765        C  0.48744683  0.93590651  0.84344307    -0.03800
C766        C  0.50720913  0.91023392  0.85907627    -0.08200
C767        C  0.02666739  0.91678912  0.88881229     0.05300
C768        C  0.02681442  0.95020537  0.90219654    -0.03300
Br769      Br  0.05363404  0.96235387  0.94138225    -0.03000
H770        H  0.00813340  0.00177171  0.89641864     0.09200
H771        H  0.50636547  0.88460517  0.84846787     0.07200
Br772      Br  0.46155807  0.92475504  0.80329587    -0.03400
C773        C  0.37274004  0.98447476  0.72503731    -0.10000
C774        C  0.39684244  0.51036843  0.71745311     0.06200
C775        C  0.40586918  0.51655611  0.68324378    -0.03800
C776        C  0.39074909  0.99710857  0.65731488    -0.08200
C777        C  0.36598694  0.97176469  0.66473331     0.05300
C778        C  0.35714608  0.96544082  0.69907119    -0.03300
Br779      Br  0.32511661  0.93038437  0.71199061    -0.03000
H780        H  0.36558178  0.97936331  0.75137441     0.09200
H781        H  0.39775245  0.00256492  0.63101189     0.07200
Br782      Br  0.43954735  0.55019765  0.67092491    -0.03400
C783        C  0.37136659  0.51697271  0.97442815    -0.10000
C784        C  0.35027787  0.98860322  0.96699672     0.06200
C785        C  0.34730911  0.97780714  0.93284222    -0.03800
C786        C  0.36459332  0.99579729  0.90706088    -0.08200
C787        C  0.38573088  0.52402214  0.91458930     0.05300
C788        C  0.38938619  0.53433496  0.94866513    -0.03300
Br789      Br  0.41768057  0.57243408  0.96102725    -0.03000
H790        H  0.37464768  0.52522463  0.00065764     0.09200
H791        H  0.36181671  0.98737789  0.88081562     0.07200
Br792      Br  0.31951209  0.93948344  0.91966012    -0.03400
C793        C  0.27273257  0.77763722  0.63689150    -0.10000
C794        C  0.23671679  0.78071976  0.64090404     0.06200
C795        C  0.22027100  0.81044804  0.62805885    -0.03800
C796        C  0.23968543  0.83586406  0.61195863    -0.08200
C797        C  0.27522875  0.83225692  0.60769196     0.05300
C798        C  0.29186115  0.80302687  0.62026155    -0.03300
Br799      Br  0.34032306  0.79670519  0.61455704    -0.03000
H800        H  0.28622121  0.75507625  0.64607712     0.09200
H801        H  0.22679937  0.85868406  0.60279777     0.07200
Br802      Br  0.17168188  0.81850173  0.63063372    -0.03400
C803        C  0.26312621  0.53186042  0.64583266    -0.10000
C804        C  0.26495700  0.53097673  0.61001564     0.06200
C805        C  0.24514277  0.55397818  0.59069383    -0.03800
C806        C  0.22457415  0.57822158  0.60727689    -0.08200
C807        C  0.22311021  0.58008020  0.64340591     0.05300
C808        C  0.24248273  0.55593691  0.66269545    -0.03300
Br809      Br  0.24295533  0.55415000  0.71186290    -0.03000
H810        H  0.27748955  0.51323264  0.66082745     0.09200
H811        H  0.21028653  0.59627938  0.59159303     0.07200
Br812      Br  0.24604282  0.55332267  0.54160068    -0.03400
C813        C  0.46004678  0.84887324  0.51620846    -0.10000
C814        C  0.46308059  0.85395223  0.98044667     0.06200
C815        C  0.44090762  0.87809747  0.96452746    -0.03800
C816        C  0.41700423  0.89632371  0.98419056    -0.08200
C817        C  0.41433476  0.89102816  0.51961408     0.05300
C818        C  0.43599523  0.86709450  0.53563472    -0.03300
Br819      Br  0.43447190  0.85970510  0.58419953    -0.03000
H820        H  0.47693646  0.83112071  0.52943560     0.09200
H821        H  0.39975116  0.91418587  0.97154665     0.07200
Br822      Br  0.44172165  0.88854622  0.91651328    -0.03400
C823        C  0.21130794  0.85858659  0.02162046    -0.10000
C824        C  0.21333647  0.89453521  0.52088706     0.08200
C825        C  0.19022062  0.91320110  0.50053922    -0.03800
C826        C  0.16563734  0.89580727  0.48113035    -0.08200
C827        C  0.16354781  0.85953973  0.98136686     0.05300
C828        C  0.18685363  0.84098826  0.00229218    -0.03300
Br829      Br  0.18675630  0.79191789  0.00687287    -0.03000
H830        H  0.22961411  0.84391066  0.03673378     0.09200
H831        H  0.14779400  0.91093578  0.46601213     0.07200
Br832      Br  0.19085611  0.96244261  0.49955559    -0.03400
O833        O  0.86531018  0.45013374  0.10871933    -0.86200
O834        O  0.88210490  0.43866510  0.04102190    -0.83300
C835        C  0.88477300  0.40629921  0.03741907     0.97300
O836        O  0.85971865  0.38711493  0.04380413    -0.83300
O837        O  0.79429856  0.36524215  0.06037988    -0.85900
C838        C  0.79380767  0.36114768  0.09262565     1.01800
O839        O  0.80218167  0.38528285  0.11198793    -0.78700
O840        O  0.81604622  0.45108154  0.13543551    -0.78900
C841        C  0.84842788  0.45510921  0.13559166     1.01700
O842        O  0.81501531  0.00137257  0.09048924    -0.86200
O843        O  0.82797266  0.48583814  0.02277749    -0.83300
C844        C  0.83484713  0.46957387  0.49593983     0.97300
O845        O  0.83336505  0.43697839  0.49607951    -0.83300
O846        O  0.76778997  0.41929578  0.01785150    -0.85900
C847        C  0.74326477  0.41070691  0.03692352     1.01700
O848        O  0.74698221  0.41032403  0.06927615    -0.78700
O849        O  0.76506641  0.47563431  0.08806607    -0.78900
C850        C  0.78257294  0.00189396  0.09401462     1.01700
Cr851      Cr  0.84551950  0.46680295  0.06574984     1.93700
Cr852      Cr  0.81387085  0.40418556  0.03178273     1.93200
Cr853      Cr  0.78465978  0.43070729  0.09903566     1.39100
O854        O  0.81466022  0.43397365  0.06552729    -1.24000
O855        O  0.97590324  0.08277616  0.26534997    -0.86200
O856        O  0.91096759  0.06270021  0.24667112    -0.83300
C857        C  0.91139650  0.02995119  0.24618954     0.97300
O858        O  0.91963634  0.01346669  0.27258663    -0.83300
O859        O  0.93585837  0.49703851  0.33903754    -0.85900
C860        C  0.96841625  0.49764311  0.34132675     1.01800
O861        O  0.98463959  0.02460697  0.33467898    -0.78700
O862        O  0.49989618  0.09089469  0.31532704    -0.78900
C863        C  0.50115369  0.09228325  0.28267032     1.01700
O864        O  0.95077896  0.13487200  0.31045083    -0.86200
O865        O  0.88544292  0.11052639  0.29784920    -0.83300
C866        C  0.86102359  0.09094447  0.29095864     0.97300
O867        O  0.86486866  0.05856243  0.29314149    -0.83300
O868        O  0.88487951  0.04690433  0.35952962    -0.85900
C869        C  0.90269391  0.04158179  0.38567821     1.01700
O870        O  0.93501615  0.04630292  0.38466589    -0.78700
O871        O  0.94642137  0.11333198  0.36198796    -0.78900
C872        C  0.95311656  0.13835234  0.34274025     1.01700
Cr873      Cr  0.93073176  0.09578652  0.28219291     1.93700
Cr874      Cr  0.90326145  0.03120264  0.31612453     1.93200
Cr875      Cr  0.96439012  0.06861394  0.34715608     1.39100
O876        O  0.93300077  0.06502665  0.31509850    -1.24000
O877        O  0.73139292  0.17188158  0.23201356    -0.86200
O878        O  0.66654176  0.18962974  0.25392707    -0.83300
C879        C  0.66470073  0.22227553  0.25251723     0.97300
O880        O  0.67020117  0.23756366  0.22478338    -0.83300
O881        O  0.68510568  0.25047676  0.15766945    -0.85900
C882        C  0.71771772  0.25098698  0.15531508     1.01800
O883        O  0.73461681  0.22442656  0.16221818    -0.78700
O884        O  0.75259037  0.15945162  0.18204732    -0.78900
C885        C  0.75600935  0.16111881  0.21439483     1.01700
O886        O  0.70566588  0.11552715  0.19130925    -0.86200
O887        O  0.64079652  0.13773746  0.20832194    -0.83300
C888        C  0.61544034  0.15671453  0.21399250     0.97300
O889        O  0.61708676  0.18889402  0.20800445    -0.83300
O890        O  0.63490528  0.19845141  0.14030919    -0.85900
C891        C  0.65171108  0.20406771  0.11354628     1.01700
O892        O  0.68421119  0.20057482  0.11399627    -0.78700
O893        O  0.69741824  0.13479642  0.13944223    -0.78900
C894        C  0.70623996  0.11066043  0.15906033     1.01700
Cr895      Cr  0.68603252  0.15548288  0.21920805     1.93700
Cr896      Cr  0.65375910  0.21667422  0.18267491     1.93200
Cr897      Cr  0.71513606  0.18001133  0.15141969     1.39100
O898        O  0.68481676  0.18406439  0.18444393    -1.24000
O899        O  0.55262169  0.36256840  0.38736383    -0.86200
O900        O  0.56716124  0.29762065  0.36389926    -0.83300
C901        C  0.59980095  0.29514658  0.36373778     0.97300
O902        O  0.61608574  0.29997528  0.39092277    -0.83300
O903        O  0.63209354  0.31067412  0.45886576    -0.85900
C904        C  0.63407077  0.34303963  0.46349902     1.01800
O905        O  0.60873294  0.36164778  0.45626618    -0.78700
O906        O  0.54363704  0.38345086  0.43831431    -0.78900
C907        C  0.54361675  0.38716304  0.40585110     1.01700
O908        O  0.99670254  0.33838261  0.43017192    -0.86200
O909        O  0.51572073  0.27260201  0.41130730    -0.83300
C910        C  0.53319669  0.24635256  0.40466795     0.97300
O911        O  0.56584045  0.24722327  0.40771676    -0.83300
O912        O  0.57860410  0.26210986  0.47574394    -0.85900
C913        C  0.58447531  0.27780856  0.00304031     1.01700
O914        O  0.58261887  0.31051923  0.00349719    -0.78700
O915        O  0.51778333  0.32824747  0.48092940    -0.78900
C916        C  0.99314325  0.33812811  0.46265472     1.01700
Cr917      Cr  0.53495354  0.31760226  0.40031108     1.93700
Cr918      Cr  0.59613573  0.28209586  0.43328040     1.93200
Cr919      Cr  0.56331391  0.34405518  0.46757044     1.39100
O920        O  0.56478408  0.31448107  0.43379055    -1.24000
C921        C  0.62238661  0.23097049  0.02435237    -0.10000
C922        C  0.59925720  0.25784113  0.03199372     0.06200
C923        C  0.59280481  0.26561880  0.06647016    -0.03800
C924        C  0.60964136  0.24703722  0.09232028    -0.08200
C925        C  0.63356989  0.22093285  0.08462872     0.05300
C926        C  0.63981287  0.21293114  0.05020976    -0.03300
Br927      Br  0.67093675  0.17707329  0.03725898    -0.03000
H928        H  0.62786370  0.22463411  0.99793771     0.09200
H929        H  0.60450824  0.25360230  0.11874979     0.07200
Br930      Br  0.56034027  0.30019230  0.07969254    -0.03400
C931        C  0.64647213  0.25797757  0.34106738    -0.10000
C932        C  0.61886092  0.28060372  0.33416655     0.06200
C933        C  0.60835875  0.28522669  0.29998841    -0.03800
C934        C  0.62452917  0.26664676  0.27392137    -0.08200
C935        C  0.65079984  0.24274290  0.28115974     0.05300
C936        C  0.66208584  0.23885382  0.31503883    -0.03300
Br937      Br  0.69902919  0.20835510  0.32678789    -0.03000
H938        H  0.65501638  0.25385992  0.36715671     0.09200
H939        H  0.61569433  0.27009504  0.24782514     0.07200
Br940      Br  0.57215811  0.31628916  0.28742170    -0.03400
C941        C  0.83112504  0.10280778  0.23714454    -0.10000
C942        C  0.83181177  0.10611170  0.27283866     0.06200
C943        C  0.80991359  0.12976753  0.28865869    -0.03800
C944        C  0.78676024  0.14874205  0.26882649    -0.08200
C945        C  0.78544412  0.14526876  0.23285524     0.05300
C946        C  0.80880409  0.12248833  0.21699698    -0.03300
Br947      Br  0.81265356  0.11693289  0.16832152    -0.03000
H948        H  0.84919599  0.08579684  0.22463517     0.09200
H949        H  0.76933573  0.16600240  0.28185715     0.07200
Br950      Br  0.81052387  0.13652596  0.33725850    -0.03400
C951        C  0.56323528  0.10558647  0.27801970    -0.10000
C952        C  0.53013630  0.10888972  0.26467769     0.06200
C953        C  0.52493907  0.12982481  0.23517214    -0.03800
C954        C  0.55282210  0.14582005  0.21918382    -0.08200
C955        C  0.58597569  0.14134746  0.23190498     0.05300
C956        C  0.59103620  0.12140552  0.26189421    -0.03300
Br957      Br  0.63514993  0.11615305  0.28320856    -0.03000
H958        H  0.56754395  0.09052386  0.30102288     0.09200
H959        H  0.54864348  0.16153267  0.19658547     0.07200
Br960      Br  0.48041533  0.13986143  0.21640473    -0.03400
C961        C  0.48286499  0.20718358  0.40460649    -0.10000
C962        C  0.51458641  0.21654461  0.39011150     0.06200
C963        C  0.02402770  0.20173709  0.35857507    -0.03800
C964        C  0.00242493  0.17804455  0.34265467    -0.08200
C965        C  0.97118772  0.16819197  0.35752653     0.05300
C966        C  0.46147637  0.18302806  0.38886015    -0.03300
Br967      Br  0.41835921  0.17260871  0.41005031    -0.03000
H968        H  0.47440667  0.21915997  0.42812265     0.09200
H969        H  0.01061685  0.16650808  0.31883398     0.07200
Br970      Br  0.06487443  0.21389533  0.33447306    -0.03400
C971        C  0.50769624  0.47599367  0.38595511    -0.10000
C972        C  0.98767318  0.46906247  0.35688446     0.06200
C973        C  0.98751699  0.43585734  0.34335458    -0.03800
C974        C  0.00726542  0.41018820  0.35900986    -0.08200
C975        C  0.52667463  0.41673216  0.38877680     0.05300
C976        C  0.52683193  0.45015068  0.40215339    -0.03300
Br977      Br  0.55363195  0.46229841  0.44135307    -0.03000
H978        H  0.50817354  0.50172102  0.39635671     0.09200
H979        H  0.00641606  0.38455287  0.34841767     0.07200
Br980      Br  0.96162260  0.42468268  0.30321730    -0.03400
C981        C  0.87333801  0.48398103  0.22497053    -0.10000
C982        C  0.89684675  0.01036109  0.21741017     0.06200
C983        C  0.90539765  0.01697323  0.18315013    -0.03800
C984        C  0.89018898  0.49766836  0.15715087    -0.08200
C985        C  0.86597292  0.47182953  0.16463582     0.05300
C986        C  0.85769694  0.46498542  0.19900582    -0.03300
Br987      Br  0.82640111  0.42926965  0.21191473    -0.03000
H988        H  0.86660336  0.47846402  0.25133933     0.09200
H989        H  0.89672892  0.50351165  0.13080826     0.07200
Br990      Br  0.93845071  0.05119077  0.17071103    -0.03400
C991        C  0.87156008  0.01684437  0.47442277    -0.10000
C992        C  0.85037576  0.48851795  0.46695152     0.06200
C993        C  0.84733516  0.47775112  0.43279520    -0.03800
C994        C  0.86461738  0.49572536  0.40700137    -0.08200
C995        C  0.88584007  0.02392279  0.41456841     0.05300
C996        C  0.88957889  0.03419019  0.44864934    -0.03300
Br997      Br  0.91798364  0.07220886  0.46100718    -0.03000
H998        H  0.87489604  0.02506298  0.50065596     0.09200
H999        H  0.86178018  0.48733300  0.38075390     0.07200
Br1000     Br  0.81942893  0.43950015  0.41963241    -0.03400
C1001       C  0.77277919  0.27765622  0.13695930    -0.10000
C1002       C  0.73675609  0.28070562  0.14092758     0.06200
C1003       C  0.72029339  0.31040579  0.12803896    -0.03800
C1004       C  0.73969516  0.33581578  0.11191760    -0.08200
C1005       C  0.77524511  0.33223981  0.10768865     0.05300
C1006       C  0.79189854  0.30304863  0.12032205    -0.03300
Br1007     Br  0.84037737  0.29678742  0.11469404    -0.03000
H1008       H  0.78628091  0.25511968  0.14618825     0.09200
H1009       H  0.72679303  0.35861233  0.10271738     0.07200
Br1010     Br  0.67169737  0.31843051  0.13058611    -0.03400
C1011       C  0.76344227  0.03207549  0.14582286    -0.10000
C1012       C  0.76493331  0.03098317  0.10999898     0.06200
C1013       C  0.74478440  0.05373972  0.09072995    -0.03800
C1014       C  0.72424577  0.07797443  0.10735996    -0.08200
C1015       C  0.72311751  0.08004043  0.14348387     0.05300
C1016       C  0.74279758  0.05611486  0.16273352    -0.03300
Br1017     Br  0.74366854  0.05455819  0.21190225    -0.03000
H1018       H  0.77805087  0.01361878  0.16079105     0.09200
H1019       H  0.70970452  0.09585999  0.09171237     0.07200
Br1020     Br  0.74520203  0.05278241  0.04163759    -0.03400
C1021       C  0.95997966  0.34887063  0.01619187    -0.10000
C1022       C  0.96311311  0.35394831  0.48043073     0.06200
C1023       C  0.94091134  0.37806228  0.46450632    -0.03800
C1024       C  0.91699894  0.39627690  0.48417085    -0.08200
C1025       C  0.91430349  0.39106782  0.01960058     0.05300
C1026       C  0.93591782  0.36708510  0.03561330    -0.03300
Br1027     Br  0.93430785  0.35960838  0.08416301    -0.03000
H1028       H  0.97683780  0.33108362  0.02941323     0.09200
H1029       H  0.89972299  0.41411467  0.47152454     0.07200
Br1030     Br  0.94171098  0.38849176  0.41648609    -0.03400
C1031       C  0.71131369  0.35859851  0.52161222    -0.10000
C1032       C  0.71330307  0.39449996  0.02091522     0.08200
C1033       C  0.69014392  0.41317587  0.00062852    -0.03800
C1034       C  0.66556331  0.39579056  0.98121304    -0.08200
C1035       C  0.66356095  0.35954483  0.48134834     0.05300
C1036       C  0.68685124  0.34099809  0.50229526    -0.03300
Br1037     Br  0.68670793  0.29193110  0.50693496    -0.03000
H1038       H  0.72960819  0.34392446  0.53674068     0.09200
H1039       H  0.64768758  0.41092843  0.96614238     0.07200
Br1040     Br  0.69072192  0.46241821  0.99973037    -0.03400
O1041       O  0.86533273  0.45018042  0.60876057    -0.86200
O1042       O  0.88216719  0.43866676  0.54106465    -0.83300
C1043       C  0.88482934  0.40630158  0.53745144     0.97300
O1044       O  0.85977443  0.38711749  0.54383882    -0.83300
O1045       O  0.79433957  0.36524971  0.56039194    -0.85900
C1046       C  0.79383149  0.36116166  0.59263766     1.01800
O1047       O  0.80220176  0.38530100  0.61199740    -0.78700
O1048       O  0.81605140  0.45111873  0.63543290    -0.78900
C1049       C  0.84843113  0.45515676  0.63562354     1.01700
O1050       O  0.81499061  0.00140816  0.59044940    -0.86200
O1051       O  0.82806644  0.48583262  0.52275339    -0.83300
C1052       C  0.83475229  0.46960349  0.99595081     0.97300
O1053       O  0.83328643  0.43700566  0.99607147    -0.83300
O1054       O  0.76785691  0.41929355  0.51783480    -0.85900
C1055       C  0.74331958  0.41071948  0.53689796     1.01700
O1056       O  0.74702385  0.41034049  0.56925227    -0.78700
O1057       O  0.76509851  0.47564847  0.58805046    -0.78900
C1058       C  0.78254955  0.00189682  0.59400321     1.01700
Cr1059     Cr  0.84556844  0.46681836  0.56575740     1.93700
Cr1060     Cr  0.81393047  0.40418337  0.53179482     1.93200
Cr1061     Cr  0.78468912  0.43072694  0.59902573     1.39100
O1062       O  0.81470631  0.43398707  0.56552927    -1.24000
O1063       O  0.97588694  0.08280016  0.76540602    -0.86200
O1064       O  0.91093673  0.06276392  0.74671279    -0.83300
C1065       C  0.91133071  0.03001413  0.74624202     0.97300
O1066       O  0.91953347  0.01352066  0.77264535    -0.83300
O1067       O  0.93575326  0.49711459  0.83914906    -0.85900
C1068       C  0.96831506  0.49769188  0.84143231     1.01800
O1069       O  0.98458539  0.02464431  0.83472384    -0.78700
O1070       O  0.49986272  0.09095158  0.81541403    -0.78900
C1071       C  0.50114543  0.09230681  0.78275701     1.01700
O1072       O  0.95077175  0.13491294  0.81049675    -0.86200
O1073       O  0.88543632  0.11062179  0.79788245    -0.83300
C1074       C  0.86099890  0.09105639  0.79101206     0.97300
O1075       O  0.86482298  0.05867170  0.79320467    -0.83300
O1076       O  0.88483968  0.04701360  0.85959459    -0.85900
C1077       C  0.90265339  0.04166550  0.88573792     1.01700
O1078       O  0.93497917  0.04635729  0.88471869    -0.78700
O1079       O  0.94639513  0.11337542  0.86203413    -0.78900
C1080       C  0.95309796  0.13839253  0.84278654     1.01700
Cr1081     Cr  0.93071622  0.09584104  0.78223587     1.93700
Cr1082     Cr  0.90319846  0.03128461  0.81618652     1.93200
Cr1083     Cr  0.96435626  0.06865835  0.84720424     1.39100
O1084       O  0.93296423  0.06508420  0.81514568    -1.24000
O1085       O  0.73134222  0.17186787  0.73201496    -0.86200
O1086       O  0.66647984  0.18965235  0.75389490    -0.83300
C1087       C  0.66461607  0.22229878  0.75248859     0.97300
O1088       O  0.67010888  0.23759286  0.72475417    -0.83300
O1089       O  0.68507437  0.25049520  0.65763886    -0.85900
C1090       C  0.71768887  0.25100667  0.65529862     1.01800
O1091       O  0.73458572  0.22444865  0.66222004    -0.78700
O1092       O  0.75255228  0.15946999  0.68204254    -0.78900
C1093       C  0.75596687  0.16113184  0.71438910     1.01700
O1094       O  0.70561412  0.11553583  0.69127838    -0.86200
O1095       O  0.64073235  0.13775752  0.70828903    -0.83300
C1096       C  0.61537926  0.15673988  0.71396079     0.97300
O1097       O  0.61702774  0.18891490  0.70795198    -0.83300
O1098       O  0.63489848  0.19844365  0.64025910    -0.85900
C1099       C  0.65172102  0.20406968  0.61350939     1.01700
O1100       O  0.68421893  0.20059193  0.61397485    -0.78700
O1101       O  0.69739201  0.13482553  0.63941643    -0.78900
C1102       C  0.70619696  0.11067859  0.65902637     1.01700
Cr1103     Cr  0.68597577  0.15549407  0.71918327     1.93700
Cr1104     Cr  0.65371335  0.21668844  0.68263266     1.93200
Cr1105     Cr  0.71511285  0.18003196  0.65141029     1.39100
O1106       O  0.68477919  0.18408420  0.68442422    -1.24000
O1107       O  0.55260917  0.36262188  0.88741139    -0.86200
O1108       O  0.56711050  0.29767630  0.86390282    -0.83300
C1109       C  0.59974788  0.29517958  0.86374669     0.97300
O1110       O  0.61603153  0.29999359  0.89093611    -0.83300
O1111       O  0.63204046  0.31065236  0.95889465    -0.85900
C1112       C  0.63401962  0.34301438  0.96354431     1.01800
O1113       O  0.60868310  0.36162886  0.95632630    -0.78700
O1114       O  0.54360947  0.38347867  0.93836923    -0.78900
C1115       C  0.54360495  0.38721079  0.90590712     1.01700
O1116       O  0.99668683  0.33838481  0.93018924    -0.86200
O1117       O  0.51565597  0.27265684  0.91128481    -0.83300
C1118       C  0.53312829  0.24640081  0.90465700     0.97300
O1119       O  0.56577091  0.24725698  0.90771403    -0.83300
O1120       O  0.57855337  0.26208718  0.97574977    -0.85900
C1121       C  0.58454312  0.27784386  0.50302274     1.01700
O1122       O  0.58269806  0.31055401  0.50346188    -0.78700
O1123       O  0.51771266  0.32826029  0.98094600    -0.78900
C1124       C  0.99312574  0.33812835  0.96267156     1.01700
Cr1125     Cr  0.53491140  0.31765524  0.90032405     1.93700
Cr1126     Cr  0.59607680  0.28210130  0.93329123     1.93200
Cr1127     Cr  0.56325766  0.34405078  0.96761175     1.39100
O1128       O  0.56472894  0.31449469  0.93381529    -1.24000
C1129       C  0.62229300  0.23088032  0.52434273    -0.10000
C1130       C  0.59932010  0.25788786  0.53198194     0.06200
C1131       C  0.59303025  0.26581003  0.56645617    -0.03800
C1132       C  0.60985634  0.24722009  0.59230187    -0.08200
C1133       C  0.63361019  0.22096439  0.58460516     0.05300
C1134       C  0.63970115  0.21282254  0.55019609    -0.03300
Br1135     Br  0.67056723  0.17673407  0.53726900    -0.03000
H1136       H  0.62765371  0.22443483  0.49793140     0.09200
H1137       H  0.60485054  0.25388668  0.61873015     0.07200
Br1138     Br  0.56080781  0.30060172  0.57969966    -0.03400
C1139       C  0.64630355  0.25786487  0.84108939    -0.10000
C1140       C  0.61880001  0.28061656  0.83417907     0.06200
C1141       C  0.60838772  0.28535348  0.79998874    -0.03800
C1142       C  0.62455521  0.26678095  0.77391086    -0.08200
C1143       C  0.65072430  0.24276088  0.78114947     0.05300
C1144       C  0.66190086  0.23873754  0.81505291    -0.03300
Br1145     Br  0.69866336  0.20803505  0.82684106    -0.03000
H1146       H  0.65476564  0.25365045  0.86719090     0.09200
H1147       H  0.61579131  0.27032743  0.74780325     0.07200
Br1148     Br  0.57232292  0.31657514  0.78742420    -0.03400
C1149       C  0.83091259  0.10266277  0.73724697    -0.10000
C1150       C  0.83178069  0.10623895  0.77290815     0.06200
C1151       C  0.81008246  0.13014425  0.78864019    -0.03800
C1152       C  0.78692217  0.14907145  0.76876933    -0.08200
C1153       C  0.78542562  0.14532242  0.73283853     0.05300
C1154       C  0.80861003  0.12231330  0.71705090    -0.03300
Br1155     Br  0.81224907  0.11640466  0.66840351    -0.03000
H1156       H  0.84884282  0.08546463  0.72478786     0.09200
H1157       H  0.76963701  0.16652117  0.78173579     0.07200
Br1158     Br  0.81096923  0.13731099  0.83717519    -0.03400
C1159       C  0.56321825  0.10571549  0.77811692    -0.10000
C1160       C  0.53011680  0.10893816  0.76475869     0.06200
C1161       C  0.52489875  0.12981614  0.73521625    -0.03800
C1162       C  0.55276609  0.14579955  0.71918593    -0.08200
C1163       C  0.58592510  0.14139179  0.73191464     0.05300
C1164       C  0.59100212  0.12153956  0.76196008    -0.03300
Br1165     Br  0.63511577  0.11642848  0.78330489    -0.03000
H1166       H  0.56754264  0.09071242  0.80115560     0.09200
H1167       H  0.54856985  0.16145748  0.69655348     0.07200
Br1168     Br  0.48035893  0.13980620  0.71646248    -0.03400
C1169       C  0.48281927  0.20721099  0.90463393    -0.10000
C1170       C  0.51451860  0.21659416  0.89010906     0.06200
C1171       C  0.02399851  0.20178188  0.85857116    -0.03800
C1172       C  0.00238451  0.17809617  0.84266384    -0.08200
C1173       C  0.97117282  0.16822312  0.85757248     0.05300
C1174       C  0.46142946  0.18305020  0.88889997    -0.03300
Br1175     Br  0.41835343  0.17258182  0.91015040    -0.03000
H1176       H  0.47438137  0.21917083  0.92816566     0.09200
H1177       H  0.01054859  0.16658110  0.81882351     0.07200
Br1178     Br  0.06480551  0.21396883  0.83441981    -0.03400
C1179       C  0.50768558  0.47605596  0.88603826    -0.10000
C1180       C  0.98756206  0.46909647  0.85698493     0.06200
C1181       C  0.98743165  0.43590430  0.84342208    -0.03800
C1182       C  0.00720320  0.41023234  0.85904990    -0.08200
C1183       C  0.52667282  0.41679288  0.88883769     0.05300
C1184       C  0.52683509  0.45020946  0.90222030    -0.03300
Br1185     Br  0.55367830  0.46235036  0.94139272    -0.03000
H1186       H  0.50816486  0.50178054  0.89644641     0.09200
H1187       H  0.00637007  0.38460680  0.84843334     0.07200
Br1188     Br  0.96154865  0.42475758  0.80326977    -0.03400
C1189       C  0.87280660  0.48444500  0.72503481    -0.10000
C1190       C  0.89677851  0.01043650  0.71746207     0.06200
C1191       C  0.90570263  0.01672937  0.68324318    -0.03800
C1192       C  0.89060774  0.49728902  0.65729609    -0.08200
C1193       C  0.86595845  0.47183852  0.66472137     0.05300
C1194       C  0.85721422  0.46541599  0.69906435    -0.03300
Br1195     Br  0.82532373  0.43023079  0.71197683    -0.03000
H1196       H  0.86572398  0.47925226  0.75137667     0.09200
H1197       H  0.89752686  0.50282336  0.63098659     0.07200
Br1198     Br  0.93923482  0.05051186  0.67090846    -0.03400
C1199       C  0.87147304  0.01691124  0.97446175    -0.10000
C1200       C  0.85026657  0.48858373  0.96697585     0.06200
C1201       C  0.84730203  0.47780100  0.93281732    -0.03800
C1202       C  0.86459530  0.49579753  0.90704650    -0.08200
C1203       C  0.88579612  0.02399330  0.91461809     0.05300
C1204       C  0.88947740  0.03428563  0.94869712    -0.03300
Br1205     Br  0.91777704  0.07238039  0.96106111    -0.03000
H1206       H  0.87477054  0.02514881  0.00069363     0.09200
H1207       H  0.86182221  0.48738954  0.88079729     0.07200
Br1208     Br  0.81948979  0.43949559  0.91961595    -0.03400
C1209       C  0.77276087  0.27766497  0.63695265    -0.10000
C1210       C  0.73673646  0.28072163  0.64090820     0.06200
C1211       C  0.72028629  0.31042412  0.62800871    -0.03800
C1212       C  0.73970193  0.33583588  0.61190296    -0.08200
C1213       C  0.77525502  0.33225639  0.60769563     0.05300
C1214       C  0.79189366  0.30305543  0.62032624    -0.03300
Br1215     Br  0.84037048  0.29677244  0.61470585    -0.03000
H1216       H  0.78625355  0.25512483  0.64618284     0.09200
H1217       H  0.72680938  0.35863255  0.60269653     0.07200
Br1218     Br  0.67168903  0.31844982  0.63051700    -0.03400
C1219       C  0.76317868  0.03191745  0.64582113    -0.10000
C1220       C  0.76488915  0.03096780  0.61000029     0.06200
C1221       C  0.74494444  0.05387682  0.59070197    -0.03800
C1222       C  0.72439242  0.07811809  0.60730724    -0.08200
C1223       C  0.72306226  0.08005461  0.64343538     0.05300
C1224       C  0.74253641  0.05597902  0.66270634    -0.03300
Br1225     Br  0.74314884  0.05426718  0.71187459    -0.03000
H1226       H  0.77763182  0.01334926  0.66080324     0.09200
H1227       H  0.71001103  0.09611518  0.59163933     0.07200
Br1228     Br  0.74564896  0.05310604  0.54160814    -0.03400
C1229       C  0.96004032  0.34889847  0.51619065    -0.10000
C1230       C  0.96308799  0.35394645  0.98043900     0.06200
C1231       C  0.94090696  0.37807904  0.96451214    -0.03800
C1232       C  0.91699001  0.39629583  0.98416736    -0.08200
C1233       C  0.91434962  0.39107444  0.51961222     0.05300
C1234       C  0.93599608  0.36712161  0.53562271    -0.03300
Br1235     Br  0.93446260  0.35970616  0.58418337    -0.03000
H1236       H  0.97691866  0.33113026  0.52941153     0.09200
H1237       H  0.89973360  0.41415057  0.97151781     0.07200
Br1238     Br  0.94172968  0.38852611  0.91649780    -0.03400
C1239       C  0.71126023  0.35857756  0.02165649    -0.10000
C1240       C  0.71335721  0.39452049  0.52088047     0.08200
C1241       C  0.69019176  0.41320299  0.50060589    -0.03800
C1242       C  0.66560724  0.39582199  0.48118746    -0.08200
C1243       C  0.66351412  0.35951476  0.98138629     0.05300
C1244       C  0.68680216  0.34097210  0.00233840    -0.03300
Br1245     Br  0.68666743  0.29190667  0.00697330    -0.03000
H1246       H  0.72955489  0.34390695  0.03678909     0.09200
H1247       H  0.64772690  0.41096280  0.46612584     0.07200
Br1248     Br  0.69076550  0.46244684  0.49973400    -0.03400
O1249       O  0.86530263  0.95009515  0.10877000    -0.86200
O1250       O  0.88213813  0.93862499  0.04107948    -0.83300
C1251       C  0.88479293  0.90625926  0.03747205     0.97300
O1252       O  0.85972921  0.88708546  0.04385007    -0.83300
O1253       O  0.79428958  0.86524107  0.06038420    -0.85900
C1254       C  0.79377936  0.86114396  0.09262899     1.01800
O1255       O  0.80214454  0.88527707  0.11199864    -0.78700
O1256       O  0.81602297  0.95107615  0.13545212    -0.78900
C1257       C  0.84840586  0.95508988  0.13563008     1.01700
O1258       O  0.81498031  0.50138104  0.09047562    -0.86200
O1259       O  0.82805126  0.98582481  0.02279887    -0.83300
C1260       C  0.83483409  0.96958680  0.49594383     0.97300
O1261       O  0.83335669  0.93699101  0.49607915    -0.83300
O1262       O  0.76782956  0.91930005  0.01783753    -0.85900
C1263       C  0.74329035  0.91072016  0.03689524     1.01700
O1264       O  0.74698518  0.91034476  0.06925071    -0.78700
O1265       O  0.76508933  0.97565024  0.08805355    -0.78900
C1266       C  0.78253907  0.50188779  0.09401418     1.01700
Cr1267     Cr  0.84555286  0.96677808  0.06578547     1.93700
Cr1268     Cr  0.81389552  0.90417488  0.03179877     1.93200
Cr1269     Cr  0.78465286  0.93071242  0.09903314     1.39100
O1270       O  0.81467551  0.93396514  0.06554201    -1.24000
O1271       O  0.97590343  0.58278124  0.26533486    -0.86200
O1272       O  0.91097314  0.56270149  0.24664962    -0.83300
C1273       C  0.91141806  0.52995272  0.24616155     0.97300
O1274       O  0.91966231  0.51347026  0.27255828    -0.83300
O1275       O  0.93584753  0.99704536  0.33906597    -0.85900
C1276       C  0.96840623  0.99764301  0.34134803     1.01800
O1277       O  0.98464487  0.52461098  0.33466352    -0.78700
O1278       O  0.49988395  0.59089251  0.31534569    -0.78900
C1279       C  0.50114692  0.59227210  0.28268916     1.01700
O1280       O  0.95077484  0.63487219  0.31043765    -0.86200
O1281       O  0.88544216  0.61051901  0.29783497    -0.83300
C1282       C  0.86102570  0.59093566  0.29093958     0.97300
O1283       O  0.86487528  0.55855299  0.29311294    -0.83300
O1284       O  0.88487494  0.54687617  0.35950220    -0.85900
C1285       C  0.90268864  0.54156190  0.38565336     1.01700
O1286       O  0.93500958  0.54629600  0.38464502    -0.78700
O1287       O  0.94641200  0.61332957  0.36197265    -0.78900
C1288       C  0.95311103  0.63835085  0.34272733     1.01700
Cr1289     Cr  0.93073141  0.59578644  0.28217694     1.93700
Cr1290     Cr  0.90327027  0.53119296  0.31609573     1.93200
Cr1291     Cr  0.96438678  0.56861351  0.34714058     1.39100
O1292       O  0.93300151  0.56502421  0.31508037    -1.24000
O1293       O  0.73137776  0.67187756  0.23202884    -0.86200
O1294       O  0.66652234  0.68961953  0.25393922    -0.83300
C1295       C  0.66467795  0.72226479  0.25252877     0.97300
O1296       O  0.67017313  0.73755286  0.22479390    -0.83300
O1297       O  0.68507974  0.75046974  0.15768424    -0.85900
C1298       C  0.71769111  0.75098612  0.15532677     1.01800
O1299       O  0.73459668  0.72442740  0.16222423    -0.78700
O1300       O  0.75257595  0.65945232  0.18206147    -0.78900
C1301       C  0.75599609  0.66112086  0.21440842     1.01700
O1302       O  0.70565338  0.61552015  0.19132898    -0.86200
O1303       O  0.64078624  0.63772444  0.20833058    -0.83300
C1304       C  0.61542719  0.65669698  0.21400045     0.97300
O1305       O  0.61706794  0.68887613  0.20801023    -0.83300
O1306       O  0.63489012  0.69843961  0.14031246    -0.85900
C1307       C  0.65169997  0.70405662  0.11355141     1.01700
O1308       O  0.68419953  0.70056303  0.11400709    -0.78700
O1309       O  0.69741450  0.63478290  0.13945664    -0.78900
C1310       C  0.70622531  0.61064748  0.15908168     1.01700
Cr1311     Cr  0.68601822  0.65547563  0.21922127     1.93700
Cr1312     Cr  0.65373772  0.71666135  0.18268359     1.93200
Cr1313     Cr  0.71512255  0.68000500  0.15143204     1.39100
O1314       O  0.68480087  0.68405592  0.18445516    -1.24000
O1315       O  0.55261867  0.86256609  0.38738134    -0.86200
O1316       O  0.56715497  0.79761843  0.36391557    -0.83300
C1317       C  0.59979441  0.79513848  0.36375655     0.97300
O1318       O  0.61607842  0.79996158  0.39094328    -0.83300
O1319       O  0.63207807  0.81066185  0.45888914    -0.85900
C1320       C  0.63405793  0.84302778  0.46352149     1.01800
O1321       O  0.60872204  0.86163886  0.45628846    -0.78700
O1322       O  0.54362754  0.88344809  0.43833058    -0.78900
C1323       C  0.54361125  0.88716087  0.40586717     1.01700
O1324       O  0.99669909  0.83836919  0.43017870    -0.86200
O1325       O  0.51570663  0.77260212  0.41131627    -0.83300
C1326       C  0.53318042  0.74635101  0.40467788     0.97300
O1327       O  0.56582383  0.74721825  0.40773036    -0.83300
O1328       O  0.57857488  0.76210368  0.47575788    -0.85900
C1329       C  0.58450950  0.77781654  0.00302870     1.01700
O1330       O  0.58263954  0.81052602  0.00348894    -0.78700
O1331       O  0.51777026  0.82823922  0.48094047    -0.78900
C1332       C  0.99314182  0.83811727  0.46266198     1.01700
Cr1333     Cr  0.53494486  0.81760112  0.40032431     1.93700
Cr1334     Cr  0.59611935  0.78208681  0.43329874     1.93200
Cr1335     Cr  0.56330083  0.84404851  0.46758686     1.39100
O1336       O  0.56477252  0.81447638  0.43380533    -1.24000
C1337       C  0.62249247  0.73104205  0.02434128    -0.10000
C1338       C  0.59929723  0.75785451  0.03198041     0.06200
C1339       C  0.59276142  0.76556610  0.06645552    -0.03800
C1340       C  0.60957626  0.74697085  0.09231043    -0.08200
C1341       C  0.63356594  0.72091940  0.08462561     0.05300
C1342       C  0.63989505  0.71298833  0.05020421    -0.03300
Br1343     Br  0.67110003  0.67720174  0.03725046    -0.03000
H1344       H  0.62803003  0.72475785  0.99792631     0.09200
H1345       H  0.60437934  0.75348778  0.11873960     0.07200
Br1346     Br  0.56021158  0.80006503  0.07966278    -0.03400
C1347       C  0.64646482  0.75796965  0.34108145    -0.10000
C1348       C  0.61885300  0.78059626  0.33418397     0.06200
C1349       C  0.60834664  0.78521899  0.30000705    -0.03800
C1350       C  0.62451129  0.76663670  0.27393851    -0.08200
C1351       C  0.65078192  0.74273217  0.28117351     0.05300
C1352       C  0.66207434  0.73884492  0.31505082    -0.03300
Br1353     Br  0.69902204  0.70834906  0.32679384    -0.03000
H1354       H  0.65501307  0.75385275  0.36716964     0.09200
H1355       H  0.61567246  0.77008448  0.24784354     0.07200
Br1356     Br  0.57214840  0.81628539  0.28744317    -0.03400
C1357       C  0.83114970  0.60284754  0.23712496    -0.10000
C1358       C  0.83181353  0.60610635  0.27282388     0.06200
C1359       C  0.80989300  0.62972972  0.28866117    -0.03800
C1360       C  0.78673458  0.64870994  0.26884022    -0.08200
C1361       C  0.78543672  0.64527626  0.23286421     0.05300
C1362       C  0.80882499  0.62253627  0.21698974    -0.03300
Br1363     Br  0.81270488  0.61704327  0.16830872    -0.03000
H1364       H  0.84923940  0.58586575  0.22460428     0.09200
H1365       H  0.76929152  0.66594198  0.28188324     0.07200
Br1366     Br  0.81048244  0.63643926  0.33726825    -0.03400
C1367       C  0.56323149  0.60555654  0.27802580    -0.10000
C1368       C  0.53012917  0.60887630  0.26469668     0.06200
C1369       C  0.52492758  0.62982198  0.23519996    -0.03800
C1370       C  0.55280923  0.64581384  0.21920711    -0.08200
C1371       C  0.58596600  0.64132594  0.23191448     0.05300
C1372       C  0.59103184  0.62137093  0.26189475    -0.03300
Br1373     Br  0.63515240  0.61609425  0.28319017    -0.03000
H1374       H  0.56754301  0.59048396  0.30102223     0.09200
H1375       H  0.54862681  0.66153635  0.19661624     0.07200
Br1376     Br  0.48039927  0.63987677  0.21645287    -0.03400
C1377       C  0.48284026  0.70719296  0.40460536    -0.10000
C1378       C  0.51456853  0.71654493  0.39011938     0.06200
C1379       C  0.02402297  0.70173860  0.35855778    -0.03800
C1380       C  0.00241756  0.67804778  0.34263769    -0.08200
C1381       C  0.97118557  0.66818813  0.35751622     0.05300
C1382       C  0.46145209  0.68303878  0.38885646    -0.03300
Br1383     Br  0.41832315  0.67263672  0.41003086    -0.03000
H1384       H  0.47437589  0.71917604  0.42811604     0.09200
H1385       H  0.01060291  0.66651930  0.31881083     0.07200
Br1386     Br  0.06485725  0.71391188  0.33444305    -0.03400
C1387       C  0.50770535  0.97599507  0.38594897    -0.10000
C1388       C  0.98765961  0.96905967  0.35690524     0.06200
C1389       C  0.98750048  0.93585511  0.34337386    -0.03800
C1390       C  0.00724983  0.91018451  0.35902558    -0.08200
C1391       C  0.52667178  0.91672984  0.38878837     0.05300
C1392       C  0.52683186  0.95015135  0.40215798    -0.03300
Br1393     Br  0.55362266  0.96230152  0.44136298    -0.03000
H1394       H  0.50818438  0.00172443  0.39634563     0.09200
H1395       H  0.00639939  0.88454993  0.34843158     0.07200
Br1396     Br  0.96159982  0.92468266  0.30324003    -0.03400
C1397       C  0.87320319  0.98407324  0.22500868    -0.10000
C1398       C  0.89688639  0.51035693  0.21737402     0.06200
C1399       C  0.90534500  0.51706029  0.18310668    -0.03800
C1400       C  0.89024566  0.99757088  0.15719987    -0.08200
C1401       C  0.86593984  0.97181435  0.16468167     0.05300
C1402       C  0.85756255  0.96507080  0.19904839    -0.03300
Br1403     Br  0.82612061  0.92948761  0.21196838    -0.03000
H1404       H  0.86639778  0.97863091  0.25137441     0.09200
H1405       H  0.89686124  0.00334490  0.13086144     0.07200
Br1406     Br  0.93827939  0.55138923  0.17065720    -0.03400
C1407       C  0.87157245  0.51682642  0.47440614    -0.10000
C1408       C  0.85036597  0.98853550  0.46696121     0.06200
C1409       C  0.84733395  0.97776987  0.43280406    -0.03800
C1410       C  0.86462301  0.99574421  0.40701588    -0.08200
C1411       C  0.88583690  0.52390440  0.41454731     0.05300
C1412       C  0.88958474  0.53417143  0.44862757    -0.03300
Br1413     Br  0.91799291  0.57218963  0.46097867    -0.03000
H1414       H  0.87491516  0.52504604  0.50063822     0.09200
H1415       H  0.86179237  0.98735296  0.38076741     0.07200
Br1416     Br  0.81943043  0.93952045  0.41963172    -0.03400
C1417       C  0.77276503  0.77773376  0.13712384    -0.10000
C1418       C  0.73672084  0.78071275  0.14094289     0.06200
C1419       C  0.72024017  0.81033466  0.12789478    -0.03800
C1420       C  0.73964376  0.83573306  0.11175562    -0.08200
C1421       C  0.77521824  0.83222712  0.10767928     0.05300
C1422       C  0.79188980  0.80311809  0.12047937    -0.03300
Br1423     Br  0.84040329  0.79694813  0.11505453    -0.03000
H1424       H  0.78628117  0.75525842  0.14647918     0.09200
H1425       H  0.72672558  0.85846840  0.10243001     0.07200
Br1426     Br  0.67161700  0.81826033  0.13023102    -0.03400
C1427       C  0.76351561  0.53213808  0.14582132    -0.10000
C1428       C  0.76488996  0.53097305  0.10999599     0.06200
C1429       C  0.74461381  0.55363484  0.09074695    -0.03800
C1430       C  0.72408707  0.57786839  0.10739316    -0.08200
C1431       C  0.72308283  0.58001373  0.14351388     0.05300
C1432       C  0.74286750  0.55616244  0.16274870    -0.03300
Br1433     Br  0.74387366  0.55468500  0.21191700    -0.03000
H1434       H  0.77821232  0.51374376  0.16077964     0.09200
H1435       H  0.70945293  0.59568996  0.09175936     0.07200
Br1436     Br  0.74484071  0.55255238  0.04165680    -0.03400
C1437       C  0.95997231  0.84881240  0.01619652    -0.10000
C1438       C  0.96311832  0.85395164  0.48043937     0.06200
C1439       C  0.94091090  0.87805547  0.46450706    -0.03800
C1440       C  0.91699901  0.89627744  0.48416602    -0.08200
C1441       C  0.91431346  0.89102352  0.01964238     0.05300
C1442       C  0.93591334  0.86701318  0.03563336    -0.03300
Br1443     Br  0.93429298  0.85948283  0.08417471    -0.03000
H1444       H  0.97682256  0.83100521  0.02940136     0.09200
H1445       H  0.89971682  0.91410407  0.47151300     0.07200
Br1446     Br  0.94169955  0.88845986  0.41648155    -0.03400
C1447       C  0.71127068  0.85859873  0.52166978    -0.10000
C1448       C  0.71334198  0.89450500  0.02087174     0.08200
C1449       C  0.69010504  0.91319829  0.00069188    -0.03800
C1450       C  0.66551248  0.89582433  0.98128021    -0.08200
C1451       C  0.66355037  0.85953186  0.48136713     0.05300
C1452       C  0.68680632  0.84099376  0.50235967    -0.03300
Br1453     Br  0.68660727  0.79193506  0.50707610    -0.03000
H1454       H  0.72953997  0.84392895  0.53683347     0.09200
H1455       H  0.64757627  0.91097489  0.96629490     0.07200
Br1456     Br  0.69060231  0.96244355  0.99992765    -0.03400
O1457       O  0.86532757  0.95018226  0.60875530    -0.86200
O1458       O  0.88216237  0.93868302  0.54105961    -0.83300
C1459       C  0.88483079  0.90631829  0.53744514     0.97300
O1460       O  0.85977852  0.88712961  0.54382985    -0.83300
O1461       O  0.79434851  0.86524796  0.56038696    -0.85900
C1462       C  0.79384258  0.86115970  0.59263291     1.01800
O1463       O  0.80221277  0.88529905  0.61199214    -0.78700
O1464       O  0.81604867  0.95111520  0.63543209    -0.78900
C1465       C  0.84842800  0.95515547  0.63561956     1.01700
O1466       O  0.81500751  0.50141009  0.59044255    -0.86200
O1467       O  0.82804896  0.98584128  0.52275854    -0.83300
C1468       C  0.83482635  0.96958340  0.99597439     0.97300
O1469       O  0.83334383  0.93698613  0.99609679    -0.83300
O1470       O  0.76785145  0.91929025  0.51783509    -0.85900
C1471       C  0.74331680  0.91071218  0.53690034     1.01700
O1472       O  0.74702545  0.91032878  0.56925392    -0.78700
O1473       O  0.76508641  0.97563805  0.58805372    -0.78900
C1474       C  0.78256714  0.50190397  0.59399885     1.01700
Cr1475     Cr  0.84555803  0.96682491  0.56575774     1.93700
Cr1476     Cr  0.81392990  0.90418784  0.53179088     1.93200
Cr1477     Cr  0.78468810  0.93072041  0.59902568     1.39100
O1478       O  0.81470205  0.93398865  0.56552755    -1.24000
O1479       O  0.97589519  0.58278549  0.76543417    -0.86200
O1480       O  0.91094558  0.56276148  0.74672146    -0.83300
C1481       C  0.91133168  0.53001144  0.74625500     0.97300
O1482       O  0.91952474  0.51351954  0.77266253    -0.83300
O1483       O  0.93577819  0.99710746  0.83912418    -0.85900
C1484       C  0.96834012  0.99768872  0.84139971     1.01800
O1485       O  0.98456493  0.52464622  0.83476240    -0.78700
O1486       O  0.49986250  0.59096256  0.81540149    -0.78900
C1487       C  0.50114848  0.59231777  0.78274417     1.01700
O1488       O  0.95077542  0.63491433  0.81050581    -0.86200
O1489       O  0.88544022  0.61063230  0.79787599    -0.83300
C1490       C  0.86100074  0.59106932  0.79100582     0.97300
O1491       O  0.86481928  0.55868438  0.79320288    -0.83300
O1492       O  0.88481559  0.54703707  0.85959583    -0.85900
C1493       C  0.90261862  0.54168841  0.88574552     1.01700
O1494       O  0.93494562  0.54637354  0.88473753    -0.78700
O1495       O  0.94637940  0.61338873  0.86204643    -0.78900
C1496       C  0.95309241  0.63840087  0.84279555     1.01700
Cr1497     Cr  0.93072184  0.59584023  0.78224562     1.93700
Cr1498     Cr  0.90318382  0.53129447  0.81619779     1.93200
Cr1499     Cr  0.96433781  0.56866511  0.84722924     1.39100
O1500       O  0.93295515  0.56508915  0.81516088    -1.24000
O1501       O  0.73135830  0.67188364  0.73199784    -0.86200
O1502       O  0.66649754  0.68966092  0.75388906    -0.83300
C1503       C  0.66462911  0.72230711  0.75247938     0.97300
O1504       O  0.67011905  0.73759879  0.72474285    -0.83300
O1505       O  0.68507985  0.75049306  0.65762334    -0.85900
C1506       C  0.71769466  0.75100317  0.65528222     1.01800
O1507       O  0.73459050  0.72444498  0.66220322    -0.78700
O1508       O  0.75256080  0.65947235  0.68202599    -0.78900
C1509       C  0.75598014  0.66114271  0.71437141     1.01700
O1510       O  0.70563065  0.61554048  0.69127303    -0.86200
O1511       O  0.64074861  0.63775792  0.70829661    -0.83300
C1512       C  0.61539428  0.65674052  0.71396355     0.97300
O1513       O  0.61704079  0.68891482  0.70795035    -0.83300
O1514       O  0.63490248  0.69843361  0.64025817    -0.85900
C1515       C  0.65171901  0.70406019  0.61350541     1.01700
O1516       O  0.68421721  0.70058709  0.61396523    -0.78700
O1517       O  0.69738931  0.63482545  0.63941312    -0.78900
C1518       C  0.70620728  0.61068198  0.65902072     1.01700
Cr1519     Cr  0.68599233  0.65550044  0.71917853     1.93700
Cr1520     Cr  0.65372122  0.71668794  0.68262508     1.93200
Cr1521     Cr  0.71511571  0.68003032  0.65139823     1.39100
O1522       O  0.68478782  0.68408577  0.68441655    -1.24000
O1523       O  0.55260728  0.86262347  0.88741081    -0.86200
O1524       O  0.56711365  0.79768244  0.86389227    -0.83300
C1525       C  0.59975143  0.79519306  0.86373136     0.97300
O1526       O  0.61603684  0.80001563  0.89091752    -0.83300
O1527       O  0.63205427  0.81067704  0.95886912    -0.85900
C1528       C  0.63402740  0.84303881  0.96352251     1.01800
O1529       O  0.60868183  0.86164685  0.95632007    -0.78700
O1530       O  0.54360237  0.88347460  0.93837022    -0.78900
C1531       C  0.54359862  0.88720882  0.90590866     1.01700
O1532       O  0.99669327  0.83839783  0.93019361    -0.86200
O1533       O  0.51567211  0.77265213  0.91128047    -0.83300
C1534       C  0.53314809  0.74640031  0.90464568     0.97300
O1535       O  0.56579141  0.74726165  0.90770106    -0.83300
O1536       O  0.57859241  0.76209266  0.97573816    -0.85900
C1537       C  0.58451672  0.77783397  0.50303775     1.01700
O1538       O  0.58267959  0.81054442  0.50347844    -0.78700
O1539       O  0.51772422  0.82824534  0.98094542    -0.78900
C1540       C  0.99313379  0.83813261  0.96267609     1.01700
Cr1541     Cr  0.53491683  0.81765430  0.90032082     1.93700
Cr1542     Cr  0.59609557  0.78211433  0.93327484     1.93200
Cr1543     Cr  0.56326345  0.84405164  0.96760790     1.39100
O1544       O  0.56473878  0.81449804  0.93380847    -1.24000
C1545       C  0.62225261  0.73085595  0.52434866    -0.10000
C1546       C  0.59929207  0.75787258  0.53199370     0.06200
C1547       C  0.59302104  0.76580335  0.56646928    -0.03800
C1548       C  0.60985554  0.74721485  0.59231003    -0.08200
C1549       C  0.63360031  0.72095326  0.58460651     0.05300
C1550       C  0.63967188  0.71280183  0.55019669    -0.03300
Br1551     Br  0.67053209  0.67671123  0.53726179    -0.03000
H1552       H  0.62759995  0.72440432  0.49793612     0.09200
H1553       H  0.60486455  0.75388772  0.61873947     0.07200
Br1554     Br  0.56081552  0.80060677  0.57972255    -0.03400
C1555       C  0.64630663  0.75787515  0.84107847    -0.10000
C1556       C  0.61880383  0.78062694  0.83416511     0.06200
C1557       C  0.60839336  0.78536110  0.79997399    -0.03800
C1558       C  0.62456553  0.76679001  0.77389762    -0.08200
C1559       C  0.65073477  0.74277057  0.78113887     0.05300
C1560       C  0.66190565  0.73874592  0.81504420    -0.03300
Br1561     Br  0.69865935  0.70803536  0.82683921    -0.03000
H1562       H  0.65476561  0.75366093  0.86718107     0.09200
H1563       H  0.61580357  0.77033545  0.74778923     0.07200
Br1564     Br  0.57232146  0.81657340  0.78740724    -0.03400
C1565       C  0.83091136  0.60266221  0.73724039    -0.10000
C1566       C  0.83178559  0.60625353  0.77289973     0.06200
C1567       C  0.81009818  0.63017310  0.78862505    -0.03800
C1568       C  0.78694183  0.64909968  0.76874986    -0.08200
C1569       C  0.78543855  0.64533521  0.73282126     0.05300
C1570       C  0.80861271  0.62231193  0.71703955    -0.03300
Br1571     Br  0.81224586  0.61638638  0.66839405    -0.03000
H1572       H  0.84883479  0.58545329  0.72478612     0.09200
H1573       H  0.76966438  0.66656077  0.78171140     0.07200
Br1574     Br  0.81099345  0.63736024  0.83715682    -0.03400
C1575       C  0.56322163  0.60572130  0.77811272    -0.10000
C1576       C  0.53012263  0.60894666  0.76474951     0.06200
C1577       C  0.52491001  0.62982520  0.73520648    -0.03800
C1578       C  0.55278099  0.64580486  0.71917950    -0.08200
C1579       C  0.58593759  0.64139405  0.73191315     0.05300
C1580       C  0.59100879  0.62154335  0.76196030    -0.03300
Br1581     Br  0.63511747  0.61643511  0.78331559    -0.03000
H1582       H  0.56754129  0.59071882  0.80115261     0.09200
H1583       H  0.54858944  0.66146314  0.69654644     0.07200
Br1584     Br  0.48037364  0.63982307  0.71644841    -0.03400
C1585       C  0.48283698  0.70721419  0.90461637    -0.10000
C1586       C  0.51453839  0.71659408  0.89009369     0.06200
C1587       C  0.02400014  0.70178280  0.85858563    -0.03800
C1588       C  0.00238764  0.67809492  0.84267904    -0.08200
C1589       C  0.97116869  0.66823237  0.85757966     0.05300
C1590       C  0.46144103  0.68306188  0.88887783    -0.03300
Br1591     Br  0.41835698  0.67261038  0.91011963    -0.03000
H1592       H  0.47440022  0.71917316  0.92814902     0.09200
H1593       H  0.01055782  0.66657085  0.81884525     0.07200
Br1594     Br  0.06481498  0.71395800  0.83444147    -0.03400
C1595       C  0.50767249  0.97604834  0.88604474    -0.10000
C1596       C  0.98759044  0.96909876  0.85695616     0.06200
C1597       C  0.98745471  0.93590243  0.84340425    -0.03800
C1598       C  0.00721985  0.91023245  0.85904211    -0.08200
C1599       C  0.52666236  0.91678779  0.88884212     0.05300
C1600       C  0.52682214  0.95020323  0.90222673    -0.03300
Br1601     Br  0.55365973  0.96234413  0.94140308    -0.03000
H1602       H  0.50815036  0.00177311  0.89645291     0.09200
H1603       H  0.00638323  0.88460361  0.84843336     0.07200
Br1604     Br  0.96157162  0.92474659  0.80325457    -0.03400
C1605       C  0.87282815  0.98442709  0.72502660    -0.10000
C1606       C  0.89677978  0.51043401  0.71747401     0.06200
C1607       C  0.90572715  0.51670699  0.68325769    -0.03800
C1608       C  0.89058239  0.99731097  0.65728307    -0.08200
C1609       C  0.86595594  0.97184017  0.66471320     0.05300
C1610       C  0.85723555  0.96539678  0.69905774    -0.03300
Br1611     Br  0.82538010  0.93018038  0.71197194    -0.03000
H1612       H  0.86576363  0.97921871  0.75137038     0.09200
H1613       H  0.89748269  0.00285978  0.63097149     0.07200
Br1614     Br  0.93928928  0.55046212  0.67093014    -0.03400
C1615       C  0.87137963  0.51695127  0.97445134    -0.10000
C1616       C  0.85034241  0.98855502  0.96699405     0.06200
C1617       C  0.84735082  0.97778123  0.93283494    -0.03800
C1618       C  0.86463120  0.99577889  0.90705572    -0.08200
C1619       C  0.88574707  0.52401917  0.91461775     0.05300
C1620       C  0.88939759  0.53432423  0.94869574    -0.03300
Br1621     Br  0.91767653  0.57243121  0.96106902    -0.03000
H1622       H  0.87465639  0.52519677  0.00068351     0.09200
H1623       H  0.86183610  0.98737822  0.88080640     0.07200
Br1624     Br  0.81951387  0.93949019  0.91964418    -0.03400
C1625       C  0.77276274  0.77763530  0.63688869    -0.10000
C1626       C  0.73674536  0.78071589  0.64089252     0.06200
C1627       C  0.72030266  0.81044586  0.62804870    -0.03800
C1628       C  0.73971910  0.83586153  0.61195064    -0.08200
C1629       C  0.77526385  0.83225734  0.60769223     0.05300
C1630       C  0.79189513  0.80302869  0.62026733    -0.03300
Br1631     Br  0.84036110  0.79671633  0.61458591    -0.03000
H1632       H  0.78624995  0.75507450  0.64607670     0.09200
H1633       H  0.72683312  0.85868019  0.60278821     0.07200
Br1634     Br  0.67171528  0.81850662  0.63063088    -0.03400
C1635       C  0.76316097  0.53189753  0.64581854    -0.10000
C1636       C  0.76491408  0.53097704  0.60999865     0.06200
C1637       C  0.74501854  0.55392342  0.59069509    -0.03800
C1638       C  0.72446101  0.57816255  0.60729607    -0.08200
C1639       C  0.72308371  0.58006629  0.64342512     0.05300
C1640       C  0.74252057  0.55596358  0.66269946    -0.03300
Br1641     Br  0.74308406  0.55422015  0.71186722    -0.03000
H1642       H  0.77758116  0.51330512  0.66080242     0.09200
H1643       H  0.71011424  0.59618414  0.59162449     0.07200
Br1644     Br  0.74579787  0.55320563  0.54160120    -0.03400
C1645       C  0.96005648  0.84892581  0.51620383    -0.10000
C1646       C  0.96309092  0.85392922  0.98045030     0.06200
C1647       C  0.94091982  0.87808364  0.96454410    -0.03800
C1648       C  0.91700700  0.89628791  0.98421469    -0.08200
C1649       C  0.91435682  0.89109471  0.51961061     0.05300
C1650       C  0.93601393  0.86715793  0.53563074    -0.03300
Br1651     Br  0.93449486  0.85977609  0.58419681    -0.03000
H1652       H  0.97694088  0.83116874  0.52943185     0.09200
H1653       H  0.89976089  0.91416377  0.97158100     0.07200
Br1654     Br  0.94175547  0.88858085  0.91654056    -0.03400
C1655       C  0.71137492  0.85857637  0.02150201    -0.10000
C1656       C  0.71335003  0.89451746  0.52088610     0.08200
C1657       C  0.69021613  0.91319247  0.50056783    -0.03800
C1658       C  0.66562945  0.89580650  0.48115653    -0.08200
C1659       C  0.66352925  0.85954314  0.98135174     0.05300
C1660       C  0.68690595  0.84098191  0.00218818    -0.03300
Br1661     Br  0.68689042  0.79190008  0.00666262    -0.03000
H1662       H  0.72973163  0.84389579  0.03654797     0.09200
H1663       H  0.64777295  0.91094153  0.46606034     0.07200
Br1664     Br  0.69083196  0.96243479  0.49963045    -0.03400
loop_ 
_geom_bond_atom_site_label_1 
_geom_bond_atom_site_label_2 
_geom_bond_distance 
_geom_bond_site_symmetry_2 
_ccdc_geom_bond_type 
O1          Cr19   1.955       .  S
O1            C9   1.255       .  A
O2          Cr19   2.042       .  S
O2            C3   1.273       .  A
C3            O4   1.256       .  A
C3          C193   1.471       .  S
O4          Cr20   1.962       .  S
O5          Cr20   2.029       .  S
O5            C6   1.269       .  A
C6            O7   1.254       .  A
C6          C173   1.461       .  S
O7          Cr21   1.958       .  S
O8          Cr21   2.043       .  S
O8            C9   1.273       .  A
C9          C153   1.481       .  S
O10        Cr435   2.042   1_545  S
O10          C18   1.273       .  A
O11         Cr19   1.954       .  S
O11         C220   1.255   1_554  A
C12          O13   1.271       .  A
C12         O219   1.255       .  A
C12         C160   1.478       .  S
O13        Cr228   2.034       .  S
O14         Cr20   1.965       .  S
O14          C15   1.257       .  A
C15          O16   1.272       .  A
C15         C200   1.472       .  S
O16         Cr21   2.040       .  S
O17         Cr21   1.952       .  S
O17         C434   1.254       .  A
C18         O433   1.254   1_545  A
C18         C180   1.466       .  S
Cr19        O426   2.042       .  S
Cr19         O22   1.759       .  S
Cr20        O221   2.034   1_554  S
Cr20         O22   1.762       .  S
Cr21         O22   1.760       .  S
O23         Cr41   1.947       .  S
O23         C863   1.253       .  A
O24         Cr41   2.052       .  S
O24          C25   1.276       .  A
C25          O26   1.253       .  A
C25         C150   1.477       .  S
O26         Cr42   1.947       .  S
O27        Cr458   2.040       .  S
O27          C28   1.273       .  A
C28         O445   1.254       .  A
C28         C140   1.469       .  S
O29         Cr43   1.949       .  S
O29         C444   1.254   1_545  A
O30        Cr875   2.052       .  S
O30          C31   1.278   1_655  A
C31         O855   1.253   1_455  A
C31         C120   1.479       .  S
O32         Cr41   2.044       .  S
O32          C40   1.273       .  A
O33         Cr41   1.955       .  S
O33          C34   1.252       .  A
C34          O35   1.272       .  A
C34         C110   1.463       .  S
O35         Cr42   2.040       .  S
O36         Cr42   1.942       .  S
O36          C37   1.252       .  A
C37          O38   1.275       .  A
C37         C163   1.474       .  S
O38         Cr43   2.051       .  S
O39         Cr43   1.966       .  S
O39          C40   1.255       .  A
C40         C133   1.482       .  S
Cr41         O44   1.754       .  S
Cr42        O443   2.040   1_545  S
Cr42         O44   1.758       .  S
Cr43        O862   2.052       .  S
Cr43         O44   1.758       .  S
O45         Cr63   1.949       .  S
O45          C53   1.254       .  A
O46         Cr63   2.050       .  S
O46          C47   1.274       .  A
C47          O48   1.252       .  A
C47         C103   1.480       .  S
O48         Cr64   1.950       .  S
O49         Cr64   2.044       .  S
O49          C50   1.275       .  A
C50          O51   1.253       .  A
C50         C170   1.485       .  S
O51         Cr65   1.941       .  S
O52         Cr65   2.047       .  S
O52          C53   1.273       .  A
C53         C113   1.487       .  S
O54         Cr63   2.051       .  S
O54          C62   1.275       .  A
O55         Cr63   1.945       .  S
O55          C56   1.253       .  A
C56          O57   1.275       .  A
C56         C123   1.472       .  S
O57         Cr64   2.047       .  S
O58         Cr64   1.950       .  S
O58          C59   1.252       .  A
C59          O60   1.274       .  A
C59          C93   1.482       .  S
O60         Cr65   2.053       .  S
O61         Cr65   1.954       .  S
O61          C62   1.257       .  A
C62         C183   1.493       .  S
Cr63         O66   1.751       .  S
Cr64         O66   1.753       .  S
Cr65         O66   1.757       .  S
O67         Cr85   1.948       .  S
O67          C75   1.252       .  A
O68         Cr85   2.053       .  S
O68          C69   1.276       .  A
C69          O70   1.253       .  A
C69         C100   1.488       .  S
O70         Cr86   1.954       .  S
O71         Cr86   2.057       .  S
O71          C72   1.277       .  A
C72          O73   1.255       .  A
C72         C203   1.494       .  S
O73         Cr87   1.951       .  S
O74         Cr87   2.055       .  S
O74          C75   1.276       .  A
C75         C143   1.481       .  S
O76        Cr917   2.059       .  S
O76          C84   1.277       .  A
O77         Cr85   1.954       .  S
O77          C78   1.255       .  A
C78          O79   1.279       .  A
C78         C130   1.487       .  S
O79         Cr86   2.066       .  S
O80         Cr86   1.953       .  S
O80         C289   1.255       .  A
C81          O82   1.276       .  A
C81         O288   1.255   1_554  A
C81          C90   1.485       .  S
O82        Cr295   2.053   1_554  S
O83         Cr87   1.951       .  S
O83         C916   1.255   1_455  A
C84         O915   1.255       .  A
C84         C190   1.495       .  S
Cr85        O908   2.059   1_455  S
Cr85         O88   1.754       .  S
Cr86         O88   1.754       .  S
Cr87        O290   2.052       .  S
Cr87         O88   1.758       .  S
C89          C90   1.413       .  A
C89          C94   1.402       .  A
C89          H96   1.084   1_554  S
C90          C91   1.405       .  A
C91          C92   1.401       .  A
C91         Br98   1.918       .  S
C92          C93   1.411       .  A
C92          H97   1.084       .  S
C93          C94   1.403       .  A
C94         Br95   1.918       .  S
C99         C100   1.414       .  A
C99         C104   1.402       .  A
C99         H106   1.083       .  S
C100        C101   1.407       .  A
C101        C102   1.402       .  A
C101       Br108   1.918       .  S
C102        C103   1.410       .  A
C102        H107   1.084       .  S
C103        C104   1.402       .  A
C104       Br105   1.918       .  S
C109        C110   1.402       .  A
C109        C114   1.398       .  A
C109        H116   1.084       .  S
C110        C111   1.401       .  A
C111        C112   1.397       .  A
C111       Br118   1.919       .  S
C112        C113   1.414       .  A
C112        H117   1.083       .  S
C113        C114   1.415       .  A
C114       Br115   1.921       .  S
C119        C120   1.398       .  A
C119        C124   1.397       .  A
C119        H126   1.083       .  S
C120        C121   1.422       .  A
C121        C122   1.400       .  A
C121       Br128   1.923   1_455  S
C122        C123   1.395       .  A
C122        H127   1.083       .  S
C123        C124   1.415       .  A
C124       Br125   1.922       .  S
C129        C130   1.409   1_655  A
C129        C134   1.404       .  A
C129        H136   1.084       .  S
C130        C963   1.413       .  A
C131        C132   1.400       .  A
C131        C962   1.413       .  A
C131       Br138   1.910       .  S
C132        C133   1.403       .  A
C132        H137   1.084       .  S
C133        C966   1.409       .  A
C134        C965   1.409       .  A
C134       Br135   1.918       .  S
C139        C144   1.399       .  A
C139        C972   1.407   1_455  A
C139        H146   1.084       .  S
C140        C141   1.400       .  A
C140        C971   1.407       .  A
C141        C142   1.398       .  A
C141       Br148   1.919       .  S
C142        C975   1.414       .  A
C142        H147   1.084       .  S
C143        C144   1.406       .  A
C143        C974   1.414       .  A
C144       Br145   1.917       .  S
C149        C154   1.400       .  A
C149        C566   1.410       .  A
C149        H156   1.084       .  S
C150        C151   1.402       .  A
C150        C565   1.410   1_545  A
C151        C568   1.400   1_545  A
C151       Br158   1.918       .  S
C152        C153   1.412       .  A
C152        C567   1.400       .  A
C152        H157   1.083       .  S
C153        C154   1.405       .  A
C154       Br155   1.919       .  S
C159        C164   1.399       .  A
C159        C576   1.412   1_545  A
C159        H166   1.084       .  S
C160        C161   1.406       .  A
C160        C575   1.412       .  A
C161        C162   1.398       .  A
C161       Br168   1.921       .  S
C162        C579   1.409       .  A
C162        H167   1.084       .  S
C163        C164   1.400       .  A
C163        C578   1.409   1_545  A
C164       Br165   1.917       .  S
C169        C170   1.418       .  A
C169        C174   1.398       .  A
C169        H176   1.082       .  S
C170        C171   1.411       .  A
C171        C172   1.395       .  A
C171       Br178   1.923       .  S
C172        C173   1.403       .  A
C172        H177   1.079       .  S
C173        C174   1.395       .  A
C174       Br175   1.918       .  S
C179        C180   1.402       .  A
C179        C184   1.401       .  A
C179        H186   1.084       .  S
C180        C181   1.399       .  A
C181        C182   1.399       .  A
C181       Br188   1.919       .  S
C182        C183   1.415       .  A
C182        H187   1.083       .  S
C183        C184   1.418       .  A
C184       Br185   1.922       .  S
C189        C194   1.400       .  A
C189        C398   1.415   1_554  A
C189        H196   1.083       .  S
C190        C191   1.417       .  A
C190        C397   1.415       .  A
C191        C192   1.402       .  A
C191       Br198   1.917       .  S
C192        C401   1.402       .  A
C192        H197   1.083       .  S
C193        C194   1.401       .  A
C193        C400   1.402   1_554  A
C194       Br195   1.918       .  S
C199        C204   1.400       .  A
C199        C408   1.402       .  A
C199        H206   1.086       .  S
C200        C201   1.401       .  A
C200        C407   1.402       .  A
C201        C202   1.401   1_554  A
C201       Br208   1.918   1_554  S
C202        C411   1.415       .  A
C202        H207   1.083       .  S
C203        C204   1.416       .  A
C203        C410   1.415       .  A
C204       Br205   1.919       .  S
O209       Cr227   1.955       .  S
O209        C217   1.255       .  A
O210       Cr227   2.043       .  S
O210        C211   1.273       .  A
C211        O212   1.256       .  A
C211        C401   1.471       .  S
O212       Cr228   1.962       .  S
O213       Cr228   2.029       .  S
O213        C214   1.269       .  A
C214        O215   1.254       .  A
C214        C381   1.461       .  S
O215       Cr229   1.958       .  S
O216       Cr229   2.043       .  S
O216        C217   1.273       .  A
C217        C361   1.481       .  S
O218       Cr643   2.042   1_545  S
O218        C226   1.273       .  A
O219       Cr227   1.954       .  S
C220        O221   1.271       .  A
C220        C368   1.479       .  S
O222       Cr228   1.965       .  S
O222        C223   1.257       .  A
C223        O224   1.272       .  A
C223        C408   1.472       .  S
O224       Cr229   2.040       .  S
O225       Cr229   1.952       .  S
O225        C642   1.254       .  A
C226        O641   1.254   1_545  A
C226        C388   1.466       .  S
Cr227       O634   2.042       .  S
Cr227       O230   1.759       .  S
Cr228       O230   1.762       .  S
Cr229       O230   1.760       .  S
O231       Cr249   1.947       .  S
O231       C1071   1.253       .  A
O232       Cr249   2.052       .  S
O232        C233   1.276       .  A
C233        O234   1.253       .  A
C233        C358   1.477       .  S
O234       Cr250   1.947       .  S
O235       Cr666   2.041       .  S
O235        C236   1.273       .  A
C236        O653   1.254       .  A
C236        C348   1.470       .  S
O237       Cr251   1.949       .  S
O237        C652   1.254   1_545  A
O238      Cr1083   2.052       .  S
O238        C239   1.278   1_655  A
C239       O1063   1.253   1_455  A
C239        C328   1.480       .  S
O240       Cr249   2.044       .  S
O240        C248   1.273       .  A
O241       Cr249   1.955       .  S
O241        C242   1.252       .  A
C242        O243   1.272       .  A
C242        C318   1.463       .  S
O243       Cr250   2.040       .  S
O244       Cr250   1.942       .  S
O244        C245   1.252       .  A
C245        O246   1.275       .  A
C245        C371   1.474       .  S
O246       Cr251   2.051       .  S
O247       Cr251   1.966       .  S
O247        C248   1.255       .  A
C248        C341   1.481       .  S
Cr249       O252   1.754       .  S
Cr250       O651   2.041   1_545  S
Cr250       O252   1.758       .  S
Cr251      O1070   2.052       .  S
Cr251       O252   1.758       .  S
O253       Cr271   1.950       .  S
O253        C261   1.254       .  A
O254       Cr271   2.050       .  S
O254        C255   1.274       .  A
C255        O256   1.252       .  A
C255        C311   1.480       .  S
O256       Cr272   1.950       .  S
O257       Cr272   2.044       .  S
O257        C258   1.275       .  A
C258        O259   1.253       .  A
C258        C378   1.485       .  S
O259       Cr273   1.940       .  S
O260       Cr273   2.047       .  S
O260        C261   1.273       .  A
C261        C321   1.486       .  S
O262       Cr271   2.052       .  S
O262        C270   1.276       .  A
O263       Cr271   1.945       .  S
O263        C264   1.253       .  A
C264        O265   1.275       .  A
C264        C331   1.472       .  S
O265       Cr272   2.047       .  S
O266       Cr272   1.950       .  S
O266        C267   1.252       .  A
C267        O268   1.274       .  A
C267        C301   1.482       .  S
O268       Cr273   2.053       .  S
O269       Cr273   1.953       .  S
O269        C270   1.256       .  A
C270        C391   1.493       .  S
Cr271       O274   1.751       .  S
Cr272       O274   1.753       .  S
Cr273       O274   1.757       .  S
O275       Cr293   1.948       .  S
O275        C283   1.253       .  A
O276       Cr293   2.053       .  S
O276        C277   1.276       .  A
C277        O278   1.253       .  A
C277        C308   1.488       .  S
O278       Cr294   1.954       .  S
O279       Cr294   2.057       .  S
O279        C280   1.277       .  A
C280        O281   1.255       .  A
C280        C411   1.494       .  S
O281       Cr295   1.951       .  S
O282       Cr295   2.055       .  S
O282        C283   1.276       .  A
C283        C351   1.481       .  S
O284      Cr1125   2.059       .  S
O284        C292   1.277       .  A
O285       Cr293   1.954       .  S
O285        C286   1.255       .  A
C286        O287   1.279       .  A
C286        C338   1.487       .  S
O287       Cr294   2.065       .  S
O288       Cr294   1.953       .  S
C289        O290   1.276       .  A
C289        C298   1.484       .  S
O291       Cr295   1.951       .  S
O291       C1124   1.255   1_455  A
C292       O1123   1.255       .  A
C292        C398   1.495       .  S
Cr293      O1116   2.059   1_455  S
Cr293       O296   1.754       .  S
Cr294       O296   1.754       .  S
Cr295       O296   1.758       .  S
C297        C298   1.413       .  A
C297        C302   1.402       .  A
C297        H304   1.084       .  S
C298        C299   1.405       .  A
C299        C300   1.401       .  A
C299       Br306   1.918       .  S
C300        C301   1.411       .  A
C300        H305   1.084       .  S
C301        C302   1.403       .  A
C302       Br303   1.918       .  S
C307        C308   1.414       .  A
C307        C312   1.402       .  A
C307        H314   1.083       .  S
C308        C309   1.407       .  A
C309        C310   1.402       .  A
C309       Br316   1.918       .  S
C310        C311   1.410       .  A
C310        H315   1.084       .  S
C311        C312   1.402       .  A
C312       Br313   1.918       .  S
C317        C318   1.402       .  A
C317        C322   1.398       .  A
C317        H324   1.084       .  S
C318        C319   1.401       .  A
C319        C320   1.397       .  A
C319       Br326   1.919       .  S
C320        C321   1.414       .  A
C320        H325   1.083       .  S
C321        C322   1.415       .  A
C322       Br323   1.921       .  S
C327        C328   1.398       .  A
C327        C332   1.397       .  A
C327        H334   1.083       .  S
C328        C329   1.422       .  A
C329        C330   1.400       .  A
C329       Br336   1.923   1_455  S
C330        C331   1.395       .  A
C330        H335   1.083       .  S
C331        C332   1.415       .  A
C332       Br333   1.921       .  S
C337        C338   1.409   1_655  A
C337        C342   1.404       .  A
C337        H344   1.084       .  S
C338       C1171   1.412       .  A
C339       C1170   1.412       .  A
C339        C340   1.400       .  A
C339       Br346   1.910       .  S
C340        C341   1.403       .  A
C340        H345   1.084       .  S
C341       C1174   1.409       .  A
C342       C1173   1.409       .  A
C342       Br343   1.918       .  S
C347       C1180   1.407   1_455  A
C347        C352   1.399       .  A
C347        H354   1.084       .  S
C348       C1179   1.407       .  A
C348        C349   1.400       .  A
C349        C350   1.398       .  A
C349       Br356   1.919       .  S
C350       C1183   1.414       .  A
C350        H355   1.084       .  S
C351       C1182   1.414       .  A
C351        C352   1.406       .  A
C352       Br353   1.917       .  S
C357        C774   1.410       .  A
C357        C362   1.400       .  A
C357        H364   1.084       .  S
C358        C773   1.410   1_545  A
C358        C359   1.402       .  A
C359        C776   1.401   1_545  A
C359       Br366   1.917       .  S
C360        C775   1.401       .  A
C360        C361   1.412       .  A
C360        H365   1.083       .  S
C361        C362   1.406       .  A
C362       Br363   1.919       .  S
C367        C784   1.412   1_545  A
C367        C372   1.399       .  A
C367        H374   1.084   1_556  S
C368        C783   1.412       .  A
C368        C369   1.407       .  A
C369        C370   1.398       .  A
C369       Br376   1.921       .  S
C370        C787   1.409       .  A
C370        H375   1.084       .  S
C371        C786   1.409   1_545  A
C371        C372   1.400       .  A
C372       Br373   1.916       .  S
C377        C378   1.418       .  A
C377        C382   1.398       .  A
C377        H384   1.082       .  S
C378        C379   1.411       .  A
C379        C380   1.395       .  A
C379       Br386   1.923       .  S
C380        C381   1.403       .  A
C380        H385   1.079       .  S
C381        C382   1.395       .  A
C382       Br383   1.918       .  S
C387        C388   1.402       .  A
C387        C392   1.401       .  A
C387        H394   1.084       .  S
C388        C389   1.399       .  A
C389        C390   1.399       .  A
C389       Br396   1.919       .  S
C390        C391   1.415       .  A
C390        H395   1.083       .  S
C391        C392   1.418       .  A
C392       Br393   1.922       .  S
C397        C402   1.400       .  A
C397        H404   1.083       .  S
C398        C399   1.417       .  A
C399        C400   1.402       .  A
C399       Br406   1.917       .  S
C400        H405   1.083       .  S
C401        C402   1.401       .  A
C402       Br403   1.918       .  S
C407        C412   1.400       .  A
C407        H414   1.086       .  S
C408        C409   1.401       .  A
C409        C410   1.402       .  A
C409       Br416   1.918       .  S
C410        H415   1.083       .  S
C411        C412   1.416   1_556  A
C412       Br413   1.918       .  S
O417       Cr435   1.955       .  S
O417        C425   1.255       .  A
O418       Cr435   2.043       .  S
O418        C419   1.273       .  A
C419        O420   1.256       .  A
C419        C609   1.471       .  S
O420       Cr436   1.962       .  S
O421       Cr436   2.029       .  S
O421        C422   1.269       .  A
C422        O423   1.254       .  A
C422        C589   1.461       .  S
O423       Cr437   1.958       .  S
O424       Cr437   2.043       .  S
O424        C425   1.273       .  A
C425        C569   1.481       .  S
O426        C434   1.273       .  A
O427       Cr435   1.954       .  S
O427        C636   1.255   1_554  A
C428        O635   1.255       .  A
C428        O429   1.271       .  A
C428        C576   1.479       .  S
O429       Cr644   2.034       .  S
O430       Cr436   1.965       .  S
O430        C431   1.257       .  A
C431        O432   1.272       .  A
C431        C616   1.472       .  S
O432       Cr437   2.040       .  S
O433       Cr437   1.952       .  S
C434        C596   1.466       .  S
Cr435       O438   1.759       .  S
Cr436       O637   2.034   1_554  S
Cr436       O438   1.762       .  S
Cr437       O438   1.760       .  S
O439       Cr457   1.947       .  S
O439       C1279   1.253       .  A
O440       Cr457   2.052       .  S
O440        C441   1.276       .  A
C441        O442   1.253       .  A
C441        C566   1.477       .  S
O442       Cr458   1.947       .  S
O443        C444   1.273       .  A
C444        C556   1.469       .  S
O445       Cr459   1.949       .  S
O446      Cr1291   2.052       .  S
O446        C447   1.278   1_655  A
C447       O1271   1.253   1_455  A
C447        C536   1.479       .  S
O448       Cr457   2.044       .  S
O448        C456   1.273       .  A
O449       Cr457   1.955       .  S
O449        C450   1.252       .  A
C450        O451   1.272       .  A
C450        C526   1.463       .  S
O451       Cr458   2.040       .  S
O452       Cr458   1.942       .  S
O452        C453   1.252       .  A
C453        O454   1.275       .  A
C453        C579   1.474       .  S
O454       Cr459   2.051       .  S
O455       Cr459   1.966       .  S
O455        C456   1.255       .  A
C456        C549   1.482       .  S
Cr457       O460   1.754       .  S
Cr458       O460   1.758       .  S
Cr459      O1278   2.052       .  S
Cr459       O460   1.758       .  S
O461       Cr479   1.949       .  S
O461        C469   1.254       .  A
O462       Cr479   2.050       .  S
O462        C463   1.274       .  A
C463        O464   1.252       .  A
C463        C519   1.480       .  S
O464       Cr480   1.950       .  S
O465       Cr480   2.044       .  S
O465        C466   1.275       .  A
C466        O467   1.253       .  A
C466        C586   1.485       .  S
O467       Cr481   1.941       .  S
O468       Cr481   2.047       .  S
O468        C469   1.273       .  A
C469        C529   1.487       .  S
O470       Cr479   2.051       .  S
O470        C478   1.275       .  A
O471       Cr479   1.945       .  S
O471        C472   1.253       .  A
C472        O473   1.275       .  A
C472        C539   1.472       .  S
O473       Cr480   2.047       .  S
O474       Cr480   1.950       .  S
O474        C475   1.252       .  A
C475        O476   1.274       .  A
C475        C509   1.482       .  S
O476       Cr481   2.053       .  S
O477       Cr481   1.954       .  S
O477        C478   1.257       .  A
C478        C599   1.493       .  S
Cr479       O482   1.751       .  S
Cr480       O482   1.753       .  S
Cr481       O482   1.757       .  S
O483       Cr501   1.948       .  S
O483        C491   1.252       .  A
O484       Cr501   2.053       .  S
O484        C485   1.276       .  A
C485        O486   1.253       .  A
C485        C516   1.488       .  S
O486       Cr502   1.954       .  S
O487       Cr502   2.057       .  S
O487        C488   1.277       .  A
C488        O489   1.255       .  A
C488        C619   1.494       .  S
O489       Cr503   1.951       .  S
O490       Cr503   2.055       .  S
O490        C491   1.276       .  A
C491        C559   1.481       .  S
O492      Cr1333   2.059       .  S
O492        C500   1.277       .  A
O493       Cr501   1.954       .  S
O493        C494   1.255       .  A
C494        O495   1.279       .  A
C494        C546   1.487       .  S
O495       Cr502   2.066       .  S
O496       Cr502   1.953       .  S
O496        C705   1.255       .  A
C497        O704   1.255   1_554  A
C497        O498   1.276       .  A
C497        C506   1.484       .  S
O498       Cr711   2.053   1_554  S
O499       Cr503   1.951       .  S
O499       C1332   1.255   1_455  A
C500       O1331   1.255       .  A
C500        C606   1.495       .  S
Cr501      O1324   2.059   1_455  S
Cr501       O504   1.754       .  S
Cr502       O504   1.754       .  S
Cr503       O706   2.052       .  S
Cr503       O504   1.758       .  S
C505        C506   1.413       .  A
C505        C510   1.402       .  A
C505        H512   1.084   1_554  S
C506        C507   1.405       .  A
C507        C508   1.401       .  A
C507       Br514   1.918       .  S
C508        C509   1.411       .  A
C508        H513   1.084       .  S
C509        C510   1.403       .  A
C510       Br511   1.918       .  S
C515        C516   1.414       .  A
C515        C520   1.402       .  A
C515        H522   1.083       .  S
C516        C517   1.407       .  A
C517        C518   1.402       .  A
C517       Br524   1.918       .  S
C518        C519   1.410       .  A
C518        H523   1.084       .  S
C519        C520   1.402       .  A
C520       Br521   1.918       .  S
C525        C526   1.402       .  A
C525        C530   1.398       .  A
C525        H532   1.084       .  S
C526        C527   1.401       .  A
C527        C528   1.397       .  A
C527       Br534   1.919       .  S
C528        C529   1.414       .  A
C528        H533   1.083       .  S
C529        C530   1.415       .  A
C530       Br531   1.921       .  S
C535        C536   1.398       .  A
C535        C540   1.397       .  A
C535        H542   1.083       .  S
C536        C537   1.422       .  A
C537        C538   1.400       .  A
C537       Br544   1.923   1_455  S
C538        C539   1.395       .  A
C538        H543   1.083       .  S
C539        C540   1.415       .  A
C540       Br541   1.922       .  S
C545        C546   1.409   1_655  A
C545        C550   1.404       .  A
C545        H552   1.084       .  S
C546       C1379   1.413       .  A
C547       C1378   1.413       .  A
C547        C548   1.400       .  A
C547       Br554   1.910       .  S
C548        C549   1.403       .  A
C548        H553   1.084       .  S
C549       C1382   1.409       .  A
C550       C1381   1.409       .  A
C550       Br551   1.918       .  S
C555       C1388   1.407   1_455  A
C555        C560   1.399       .  A
C555        H562   1.084   1_565  S
C556       C1387   1.407       .  A
C556        C557   1.400       .  A
C557        C558   1.398       .  A
C557       Br564   1.919       .  S
C558       C1391   1.414       .  A
C558        H563   1.084       .  S
C559       C1390   1.414       .  A
C559        C560   1.406       .  A
C560       Br561   1.917       .  S
C565        C570   1.400       .  A
C565        H572   1.084       .  S
C566        C567   1.402       .  A
C567       Br574   1.918       .  S
C568        C569   1.412       .  A
C568        H573   1.083   1_565  S
C569        C570   1.405       .  A
C570       Br571   1.919       .  S
C575        C580   1.399       .  A
C575        H582   1.084       .  S
C576        C577   1.406       .  A
C577        C578   1.398       .  A
C577       Br584   1.921       .  S
C578        H583   1.084       .  S
C579        C580   1.400       .  A
C580       Br581   1.917       .  S
C585        C586   1.418       .  A
C585        C590   1.398       .  A
C585        H592   1.082       .  S
C586        C587   1.411       .  A
C587        C588   1.395       .  A
C587       Br594   1.923       .  S
C588        C589   1.403       .  A
C588        H593   1.079       .  S
C589        C590   1.395       .  A
C590       Br591   1.918       .  S
C595        C596   1.402       .  A
C595        C600   1.401       .  A
C595        H602   1.084       .  S
C596        C597   1.399       .  A
C597        C598   1.399       .  A
C597       Br604   1.919       .  S
C598        C599   1.415       .  A
C598        H603   1.083       .  S
C599        C600   1.418       .  A
C600       Br601   1.922       .  S
C605        C814   1.415   1_554  A
C605        C610   1.400       .  A
C605        H612   1.083       .  S
C606        C813   1.415       .  A
C606        C607   1.417       .  A
C607        C608   1.402       .  A
C607       Br614   1.917       .  S
C608        C817   1.402       .  A
C608        H613   1.083       .  S
C609        C816   1.402   1_554  A
C609        C610   1.401       .  A
C610       Br611   1.918       .  S
C615        C824   1.402       .  A
C615        C620   1.400       .  A
C615        H622   1.086       .  S
C616        C823   1.402       .  A
C616        C617   1.401       .  A
C617        C618   1.402   1_554  A
C617       Br624   1.918   1_554  S
C618        C827   1.415       .  A
C618        H623   1.083       .  S
C619        C826   1.415       .  A
C619        C620   1.416       .  A
C620       Br621   1.919       .  S
O625       Cr643   1.955       .  S
O625        C633   1.255       .  A
O626       Cr643   2.043       .  S
O626        C627   1.273       .  A
C627        O628   1.256       .  A
C627        C817   1.471       .  S
O628       Cr644   1.962       .  S
O629       Cr644   2.029       .  S
O629        C630   1.269       .  A
C630        O631   1.254       .  A
C630        C797   1.461       .  S
O631       Cr645   1.958       .  S
O632       Cr645   2.043       .  S
O632        C633   1.273       .  A
C633        C777   1.481       .  S
O634        C642   1.273       .  A
O635       Cr643   1.954       .  S
C636        O637   1.271       .  A
C636        C784   1.479       .  S
O638       Cr644   1.965       .  S
O638        C639   1.257       .  A
C639        O640   1.272       .  A
C639        C824   1.472       .  S
O640       Cr645   2.040       .  S
O641       Cr645   1.952       .  S
C642        C804   1.466       .  S
Cr643       O646   1.759       .  S
Cr644       O646   1.762       .  S
Cr645       O646   1.760       .  S
O647       Cr665   1.947       .  S
O647       C1487   1.253       .  A
O648       Cr665   2.052       .  S
O648        C649   1.276       .  A
C649        O650   1.253       .  A
C649        C774   1.477       .  S
O650       Cr666   1.947       .  S
O651        C652   1.273       .  A
C652        C764   1.469       .  S
O653       Cr667   1.949       .  S
O654      Cr1499   2.052       .  S
O654        C655   1.278   1_655  A
C655       O1479   1.253   1_455  A
C655        C744   1.480       .  S
O656       Cr665   2.044       .  S
O656        C664   1.273       .  A
O657       Cr665   1.955       .  S
O657        C658   1.252       .  A
C658        O659   1.272       .  A
C658        C734   1.463       .  S
O659       Cr666   2.040       .  S
O660       Cr666   1.942       .  S
O660        C661   1.252       .  A
C661        O662   1.275       .  A
C661        C787   1.474       .  S
O662       Cr667   2.051       .  S
O663       Cr667   1.966       .  S
O663        C664   1.255       .  A
C664        C757   1.482       .  S
Cr665       O668   1.754       .  S
Cr666       O668   1.758       .  S
Cr667      O1486   2.052       .  S
Cr667       O668   1.758       .  S
O669       Cr687   1.950       .  S
O669        C677   1.254       .  A
O670       Cr687   2.050       .  S
O670        C671   1.274       .  A
C671        O672   1.252       .  A
C671        C727   1.480       .  S
O672       Cr688   1.950       .  S
O673       Cr688   2.044       .  S
O673        C674   1.275       .  A
C674        O675   1.253       .  A
C674        C794   1.485       .  S
O675       Cr689   1.941       .  S
O676       Cr689   2.047       .  S
O676        C677   1.273       .  A
C677        C737   1.486       .  S
O678       Cr687   2.052       .  S
O678        C686   1.276       .  A
O679       Cr687   1.945       .  S
O679        C680   1.253       .  A
C680        O681   1.275       .  A
C680        C747   1.472       .  S
O681       Cr688   2.047       .  S
O682       Cr688   1.950       .  S
O682        C683   1.252       .  A
C683        O684   1.274       .  A
C683        C717   1.482       .  S
O684       Cr689   2.053       .  S
O685       Cr689   1.953       .  S
O685        C686   1.256       .  A
C686        C807   1.493       .  S
Cr687       O690   1.751       .  S
Cr688       O690   1.753       .  S
Cr689       O690   1.757       .  S
O691       Cr709   1.948       .  S
O691        C699   1.253       .  A
O692       Cr709   2.053       .  S
O692        C693   1.276       .  A
C693        O694   1.253       .  A
C693        C724   1.488       .  S
O694       Cr710   1.954       .  S
O695       Cr710   2.057       .  S
O695        C696   1.277       .  A
C696        O697   1.255       .  A
C696        C827   1.494       .  S
O697       Cr711   1.951       .  S
O698       Cr711   2.055       .  S
O698        C699   1.276       .  A
C699        C767   1.481       .  S
O700      Cr1541   2.059       .  S
O700        C708   1.277       .  A
O701       Cr709   1.954       .  S
O701        C702   1.255       .  A
C702        O703   1.279       .  A
C702        C754   1.487       .  S
O703       Cr710   2.065       .  S
O704       Cr710   1.953       .  S
C705        O706   1.276       .  A
C705        C714   1.484       .  S
O707       Cr711   1.951       .  S
O707       C1540   1.255   1_455  A
C708       O1539   1.255       .  A
C708        C814   1.495       .  S
Cr709      O1532   2.059   1_455  S
Cr709       O712   1.754       .  S
Cr710       O712   1.754       .  S
Cr711       O712   1.758       .  S
C713        C714   1.413       .  A
C713        C718   1.402       .  A
C713        H720   1.084       .  S
C714        C715   1.405       .  A
C715        C716   1.401       .  A
C715       Br722   1.918       .  S
C716        C717   1.411       .  A
C716        H721   1.084       .  S
C717        C718   1.403       .  A
C718       Br719   1.918       .  S
C723        C724   1.414       .  A
C723        C728   1.402       .  A
C723        H730   1.083       .  S
C724        C725   1.407       .  A
C725        C726   1.402       .  A
C725       Br732   1.918       .  S
C726        C727   1.410       .  A
C726        H731   1.084       .  S
C727        C728   1.402       .  A
C728       Br729   1.918       .  S
C733        C734   1.402       .  A
C733        C738   1.398       .  A
C733        H740   1.084       .  S
C734        C735   1.401       .  A
C735        C736   1.397       .  A
C735       Br742   1.919       .  S
C736        C737   1.414       .  A
C736        H741   1.083       .  S
C737        C738   1.415       .  A
C738       Br739   1.921       .  S
C743        C744   1.398       .  A
C743        C748   1.397       .  A
C743        H750   1.083       .  S
C744        C745   1.422       .  A
C745        C746   1.400       .  A
C745       Br752   1.923   1_455  S
C746        C747   1.395       .  A
C746        H751   1.083       .  S
C747        C748   1.415       .  A
C748       Br749   1.921       .  S
C753        C754   1.409   1_655  A
C753        C758   1.404       .  A
C753        H760   1.084       .  S
C754       C1587   1.412       .  A
C755       C1586   1.413       .  A
C755        C756   1.400       .  A
C755       Br762   1.910       .  S
C756        C757   1.403       .  A
C756        H761   1.084       .  S
C757       C1590   1.409       .  A
C758       C1589   1.409       .  A
C758       Br759   1.918       .  S
C763       C1596   1.407   1_455  A
C763        C768   1.399       .  A
C763        H770   1.084   1_565  S
C764       C1595   1.407       .  A
C764        C765   1.400       .  A
C765        C766   1.398       .  A
C765       Br772   1.919       .  S
C766       C1599   1.414       .  A
C766        H771   1.084       .  S
C767       C1598   1.414       .  A
C767        C768   1.406       .  A
C768       Br769   1.917       .  S
C773        C778   1.401       .  A
C773        H780   1.084       .  S
C774        C775   1.402       .  A
C775       Br782   1.917       .  S
C776        C777   1.412       .  A
C776        H781   1.083   1_565  S
C777        C778   1.406       .  A
C778       Br779   1.919       .  S
C783        C788   1.399       .  A
C783        H790   1.084   1_556  S
C784        C785   1.407       .  A
C785        C786   1.398       .  A
C785       Br792   1.921       .  S
C786        H791   1.084       .  S
C787        C788   1.400       .  A
C788       Br789   1.916       .  S
C793        C794   1.418       .  A
C793        C798   1.398       .  A
C793        H800   1.082       .  S
C794        C795   1.411       .  A
C795        C796   1.395       .  A
C795       Br802   1.922       .  S
C796        C797   1.403       .  A
C796        H801   1.079       .  S
C797        C798   1.395       .  A
C798       Br799   1.918       .  S
C803        C804   1.402       .  A
C803        C808   1.401       .  A
C803        H810   1.084       .  S
C804        C805   1.399       .  A
C805        C806   1.399       .  A
C805       Br812   1.919       .  S
C806        C807   1.415       .  A
C806        H811   1.083       .  S
C807        C808   1.418       .  A
C808       Br809   1.922       .  S
C813        C818   1.400       .  A
C813        H820   1.083       .  S
C814        C815   1.417       .  A
C815        C816   1.402       .  A
C815       Br822   1.917       .  S
C816        H821   1.083       .  S
C817        C818   1.401       .  A
C818       Br819   1.918       .  S
C823        C828   1.400       .  A
C823        H830   1.086       .  S
C824        C825   1.401       .  A
C825        C826   1.402       .  A
C825       Br832   1.918       .  S
C826        H831   1.083       .  S
C827        C828   1.416   1_556  A
C828       Br829   1.918       .  S
O833       Cr851   1.955       .  S
O833        C841   1.255       .  A
O834       Cr851   2.043       .  S
O834        C835   1.273       .  A
C835        O836   1.256       .  A
C835       C1025   1.471       .  S
O836       Cr852   1.962       .  S
O837       Cr852   2.029       .  S
O837        C838   1.269       .  A
C838        O839   1.254       .  A
C838       C1005   1.461       .  S
O839       Cr853   1.958       .  S
O840       Cr853   2.043       .  S
O840        C841   1.273       .  A
C841        C985   1.481       .  S
O842      Cr1267   2.042   1_545  S
O842        C850   1.273       .  A
O843       Cr851   1.954       .  S
O843       C1052   1.255   1_554  A
C844       O1051   1.255       .  A
C844        O845   1.271       .  A
C844        C992   1.479       .  S
O845      Cr1060   2.034       .  S
O846       Cr852   1.965       .  S
O846        C847   1.257       .  A
C847        O848   1.272       .  A
C847       C1032   1.472       .  S
O848       Cr853   2.040       .  S
O849       Cr853   1.952       .  S
O849       C1266   1.254       .  A
C850       O1265   1.254   1_545  A
C850       C1012   1.466       .  S
Cr851      O1258   2.042       .  S
Cr851       O854   1.759       .  S
Cr852      O1053   2.034   1_554  S
Cr852       O854   1.762       .  S
Cr853       O854   1.760       .  S
O855       Cr873   1.947       .  S
O856       Cr873   2.052       .  S
O856        C857   1.276       .  A
C857        O858   1.253       .  A
C857        C982   1.477       .  S
O858       Cr874   1.947       .  S
O859      Cr1290   2.041       .  S
O859        C860   1.273       .  A
C860       O1277   1.254       .  A
C860        C972   1.469       .  S
O861       Cr875   1.949       .  S
O861       C1276   1.254   1_545  A
O862        C863   1.278       .  A
C863        C952   1.479       .  S
O864       Cr873   2.044       .  S
O864        C872   1.273       .  A
O865       Cr873   1.955       .  S
O865        C866   1.252       .  A
C866        O867   1.272       .  A
C866        C942   1.463       .  S
O867       Cr874   2.040       .  S
O868       Cr874   1.942       .  S
O868        C869   1.252       .  A
C869        O870   1.275       .  A
C869        C995   1.474       .  S
O870       Cr875   2.051       .  S
O871       Cr875   1.966       .  S
O871        C872   1.255       .  A
C872        C965   1.482       .  S
Cr873       O876   1.754       .  S
Cr874      O1275   2.041   1_545  S
Cr874       O876   1.758       .  S
Cr875       O876   1.758       .  S
O877       Cr895   1.949       .  S
O877        C885   1.254       .  A
O878       Cr895   2.050       .  S
O878        C879   1.274       .  A
C879        O880   1.252       .  A
C879        C935   1.480       .  S
O880       Cr896   1.950       .  S
O881       Cr896   2.044       .  S
O881        C882   1.275       .  A
C882        O883   1.253       .  A
C882       C1002   1.485       .  S
O883       Cr897   1.941       .  S
O884       Cr897   2.047       .  S
O884        C885   1.273       .  A
C885        C945   1.487       .  S
O886       Cr895   2.051       .  S
O886        C894   1.275       .  A
O887       Cr895   1.945       .  S
O887        C888   1.253       .  A
C888        O889   1.275       .  A
C888        C955   1.472       .  S
O889       Cr896   2.047       .  S
O890       Cr896   1.950       .  S
O890        C891   1.252       .  A
C891        O892   1.274       .  A
C891        C925   1.482       .  S
O892       Cr897   2.053       .  S
O893       Cr897   1.953       .  S
O893        C894   1.257       .  A
C894       C1015   1.493       .  S
Cr895       O898   1.751       .  S
Cr896       O898   1.753       .  S
Cr897       O898   1.757       .  S
O899       Cr917   1.948       .  S
O899        C907   1.253       .  A
O900       Cr917   2.053       .  S
O900        C901   1.276       .  A
C901        O902   1.253       .  A
C901        C932   1.488       .  S
O902       Cr918   1.954       .  S
O903       Cr918   2.057       .  S
O903        C904   1.277       .  A
C904        O905   1.255       .  A
C904       C1035   1.494       .  S
O905       Cr919   1.951       .  S
O906       Cr919   2.055       .  S
O906        C907   1.276       .  A
C907        C975   1.481       .  S
O908        C916   1.277       .  A
O909       Cr917   1.954       .  S
O909        C910   1.255       .  A
C910        O911   1.279       .  A
C910        C962   1.487       .  S
O911       Cr918   2.066       .  S
O912       Cr918   1.953       .  S
O912       C1121   1.255       .  A
C913       O1120   1.255   1_554  A
C913        O914   1.276       .  A
C913        C922   1.484       .  S
O914      Cr1127   2.053   1_554  S
O915       Cr919   1.951       .  S
C916       C1022   1.495       .  S
Cr917       O920   1.754       .  S
Cr918       O920   1.754       .  S
Cr919      O1122   2.052       .  S
Cr919       O920   1.758       .  S
C921        C922   1.413       .  A
C921        C926   1.402       .  A
C921        H928   1.084   1_554  S
C922        C923   1.405       .  A
C923        C924   1.401       .  A
C923       Br930   1.918       .  S
C924        C925   1.411       .  A
C924        H929   1.084       .  S
C925        C926   1.403       .  A
C926       Br927   1.918       .  S
C931        C932   1.414       .  A
C931        C936   1.402       .  A
C931        H938   1.083       .  S
C932        C933   1.407       .  A
C933        C934   1.401       .  A
C933       Br940   1.918       .  S
C934        C935   1.410       .  A
C934        H939   1.084       .  S
C935        C936   1.402       .  A
C936       Br937   1.918       .  S
C941        C942   1.402       .  A
C941        C946   1.398       .  A
C941        H948   1.084       .  S
C942        C943   1.401       .  A
C943        C944   1.397       .  A
C943       Br950   1.919       .  S
C944        C945   1.414       .  A
C944        H949   1.083       .  S
C945        C946   1.415       .  A
C946       Br947   1.921       .  S
C951        C952   1.398       .  A
C951        C956   1.397       .  A
C951        H958   1.083       .  S
C952        C953   1.422       .  A
C953        C954   1.400       .  A
C953       Br960   1.923       .  S
C954        C955   1.395       .  A
C954        H959   1.083       .  S
C955        C956   1.415       .  A
C956       Br957   1.922       .  S
C961        C962   1.409       .  A
C961        C966   1.404       .  A
C961        H968   1.084       .  S
C963        C964   1.400       .  A
C963       Br970   1.910       .  S
C964        C965   1.403   1_455  A
C964        H969   1.084       .  S
C966       Br967   1.918       .  S
C971        C976   1.399       .  A
C971        H978   1.084       .  S
C972        C973   1.400       .  A
C973        C974   1.398   1_655  A
C973       Br980   1.919       .  S
C974        H979   1.084       .  S
C975        C976   1.406       .  A
C976       Br977   1.917       .  S
C981       C1398   1.410       .  A
C981        C986   1.400       .  A
C981        H988   1.084       .  S
C982       C1397   1.410   1_545  A
C982        C983   1.402       .  A
C983       C1400   1.400   1_545  A
C983       Br990   1.918       .  S
C984       C1399   1.400       .  A
C984        C985   1.412       .  A
C984        H989   1.083       .  S
C985        C986   1.405       .  A
C986       Br987   1.919       .  S
C991       C1408   1.412   1_545  A
C991        C996   1.399       .  A
C991        H998   1.084       .  S
C992       C1407   1.412       .  A
C992        C993   1.406       .  A
C993        C994   1.398       .  A
C993      Br1000   1.921       .  S
C994       C1411   1.409       .  A
C994        H999   1.084       .  S
C995       C1410   1.409   1_545  A
C995        C996   1.400       .  A
C996       Br997   1.917       .  S
C1001      C1002   1.418       .  A
C1001      C1006   1.398       .  A
C1001      H1008   1.082       .  S
C1002      C1003   1.411       .  A
C1003      C1004   1.395       .  A
C1003     Br1010   1.923       .  S
C1004      C1005   1.403       .  A
C1004      H1009   1.079       .  S
C1005      C1006   1.395       .  A
C1006     Br1007   1.918       .  S
C1011      C1012   1.402       .  A
C1011      C1016   1.401       .  A
C1011      H1018   1.084       .  S
C1012      C1013   1.399       .  A
C1013      C1014   1.399       .  A
C1013     Br1020   1.919       .  S
C1014      C1015   1.415       .  A
C1014      H1019   1.083       .  S
C1015      C1016   1.418       .  A
C1016     Br1017   1.922       .  S
C1021      C1230   1.415   1_554  A
C1021      C1026   1.400       .  A
C1021      H1028   1.083       .  S
C1022      C1229   1.415       .  A
C1022      C1023   1.417       .  A
C1023      C1024   1.402       .  A
C1023     Br1030   1.917       .  S
C1024      C1233   1.402       .  A
C1024      H1029   1.083       .  S
C1025      C1232   1.402   1_554  A
C1025      C1026   1.401       .  A
C1026     Br1027   1.918       .  S
C1031      C1240   1.402       .  A
C1031      C1036   1.400       .  A
C1031      H1038   1.086       .  S
C1032      C1239   1.402       .  A
C1032      C1033   1.401       .  A
C1033      C1034   1.401   1_554  A
C1033     Br1040   1.918   1_554  S
C1034      C1243   1.415       .  A
C1034      H1039   1.083       .  S
C1035      C1242   1.415       .  A
C1035      C1036   1.416       .  A
C1036     Br1037   1.919       .  S
O1041     Cr1059   1.955       .  S
O1041      C1049   1.255       .  A
O1042     Cr1059   2.043       .  S
O1042      C1043   1.273       .  A
C1043      O1044   1.256       .  A
C1043      C1233   1.471       .  S
O1044     Cr1060   1.962       .  S
O1045     Cr1060   2.029       .  S
O1045      C1046   1.269       .  A
C1046      O1047   1.254       .  A
C1046      C1213   1.461       .  S
O1047     Cr1061   1.958       .  S
O1048     Cr1061   2.043       .  S
O1048      C1049   1.273       .  A
C1049      C1193   1.481       .  S
O1050     Cr1475   2.042   1_545  S
O1050      C1058   1.273       .  A
O1051     Cr1059   1.954       .  S
C1052      O1053   1.271       .  A
C1052      C1200   1.479       .  S
O1054     Cr1060   1.965       .  S
O1054      C1055   1.257       .  A
C1055      O1056   1.272       .  A
C1055      C1240   1.472       .  S
O1056     Cr1061   2.040       .  S
O1057     Cr1061   1.952       .  S
O1057      C1474   1.254       .  A
C1058      O1473   1.254   1_545  A
C1058      C1220   1.466       .  S
Cr1059     O1466   2.042       .  S
Cr1059     O1062   1.759       .  S
Cr1060     O1062   1.762       .  S
Cr1061     O1062   1.760       .  S
O1063     Cr1081   1.947       .  S
O1064     Cr1081   2.052       .  S
O1064      C1065   1.276       .  A
C1065      O1066   1.253       .  A
C1065      C1190   1.477       .  S
O1066     Cr1082   1.947       .  S
O1067     Cr1498   2.041       .  S
O1067      C1068   1.273       .  A
C1068      O1485   1.254       .  A
C1068      C1180   1.470       .  S
O1069     Cr1083   1.949       .  S
O1069      C1484   1.254   1_545  A
O1070      C1071   1.278       .  A
C1071      C1160   1.480       .  S
O1072     Cr1081   2.044       .  S
O1072      C1080   1.273       .  A
O1073     Cr1081   1.955       .  S
O1073      C1074   1.252       .  A
C1074      O1075   1.272       .  A
C1074      C1150   1.463       .  S
O1075     Cr1082   2.040       .  S
O1076     Cr1082   1.942       .  S
O1076      C1077   1.252       .  A
C1077      O1078   1.275       .  A
C1077      C1203   1.474       .  S
O1078     Cr1083   2.051       .  S
O1079     Cr1083   1.966       .  S
O1079      C1080   1.255       .  A
C1080      C1173   1.481       .  S
Cr1081     O1084   1.754       .  S
Cr1082     O1483   2.041   1_545  S
Cr1082     O1084   1.758       .  S
Cr1083     O1084   1.758       .  S
O1085     Cr1103   1.950       .  S
O1085      C1093   1.254       .  A
O1086     Cr1103   2.050       .  S
O1086      C1087   1.274       .  A
C1087      O1088   1.252       .  A
C1087      C1143   1.480       .  S
O1088     Cr1104   1.950       .  S
O1089     Cr1104   2.044       .  S
O1089      C1090   1.275       .  A
C1090      O1091   1.253       .  A
C1090      C1210   1.485       .  S
O1091     Cr1105   1.941       .  S
O1092     Cr1105   2.046       .  S
O1092      C1093   1.273       .  A
C1093      C1153   1.486       .  S
O1094     Cr1103   2.052       .  S
O1094      C1102   1.276       .  A
O1095     Cr1103   1.945       .  S
O1095      C1096   1.253       .  A
C1096      O1097   1.275       .  A
C1096      C1163   1.472       .  S
O1097     Cr1104   2.047       .  S
O1098     Cr1104   1.950       .  S
O1098      C1099   1.252       .  A
C1099      O1100   1.274       .  A
C1099      C1133   1.482       .  S
O1100     Cr1105   2.053       .  S
O1101     Cr1105   1.953       .  S
O1101      C1102   1.256       .  A
C1102      C1223   1.493       .  S
Cr1103     O1106   1.751       .  S
Cr1104     O1106   1.753       .  S
Cr1105     O1106   1.757       .  S
O1107     Cr1125   1.948       .  S
O1107      C1115   1.253       .  A
O1108     Cr1125   2.053       .  S
O1108      C1109   1.276       .  A
C1109      O1110   1.253       .  A
C1109      C1140   1.488       .  S
O1110     Cr1126   1.954       .  S
O1111     Cr1126   2.057       .  S
O1111      C1112   1.277       .  A
C1112      O1113   1.255       .  A
C1112      C1243   1.494       .  S
O1113     Cr1127   1.951       .  S
O1114     Cr1127   2.055       .  S
O1114      C1115   1.276       .  A
C1115      C1183   1.481       .  S
O1116      C1124   1.277       .  A
O1117     Cr1125   1.954       .  S
O1117      C1118   1.255       .  A
C1118      O1119   1.279       .  A
C1118      C1170   1.487       .  S
O1119     Cr1126   2.065       .  S
O1120     Cr1126   1.953       .  S
C1121      O1122   1.276       .  A
C1121      C1130   1.484       .  S
O1123     Cr1127   1.951       .  S
C1124      C1230   1.495       .  S
Cr1125     O1128   1.754       .  S
Cr1126     O1128   1.754       .  S
Cr1127     O1128   1.758       .  S
C1129      C1130   1.413       .  A
C1129      C1134   1.402       .  A
C1129      H1136   1.084       .  S
C1130      C1131   1.405       .  A
C1131      C1132   1.401       .  A
C1131     Br1138   1.918       .  S
C1132      C1133   1.411       .  A
C1132      H1137   1.084       .  S
C1133      C1134   1.403       .  A
C1134     Br1135   1.918       .  S
C1139      C1140   1.414       .  A
C1139      C1144   1.402       .  A
C1139      H1146   1.083       .  S
C1140      C1141   1.407       .  A
C1141      C1142   1.402       .  A
C1141     Br1148   1.918       .  S
C1142      C1143   1.410       .  A
C1142      H1147   1.084       .  S
C1143      C1144   1.402       .  A
C1144     Br1145   1.918       .  S
C1149      C1150   1.402       .  A
C1149      C1154   1.398       .  A
C1149      H1156   1.084       .  S
C1150      C1151   1.401       .  A
C1151      C1152   1.397       .  A
C1151     Br1158   1.919       .  S
C1152      C1153   1.414       .  A
C1152      H1157   1.083       .  S
C1153      C1154   1.415       .  A
C1154     Br1155   1.921       .  S
C1159      C1160   1.398       .  A
C1159      C1164   1.397       .  A
C1159      H1166   1.083       .  S
C1160      C1161   1.422       .  A
C1161      C1162   1.400       .  A
C1161     Br1168   1.923       .  S
C1162      C1163   1.395       .  A
C1162      H1167   1.083       .  S
C1163      C1164   1.415       .  A
C1164     Br1165   1.921       .  S
C1169      C1170   1.409       .  A
C1169      C1174   1.404       .  A
C1169      H1176   1.084       .  S
C1171      C1172   1.400       .  A
C1171     Br1178   1.910       .  S
C1172      C1173   1.403   1_455  A
C1172      H1177   1.084       .  S
C1174     Br1175   1.918       .  S
C1179      C1184   1.399       .  A
C1179      H1186   1.084       .  S
C1180      C1181   1.400       .  A
C1181      C1182   1.398   1_655  A
C1181     Br1188   1.919       .  S
C1182      H1187   1.084       .  S
C1183      C1184   1.406       .  A
C1184     Br1185   1.917       .  S
C1189      C1606   1.410       .  A
C1189      C1194   1.401       .  A
C1189      H1196   1.084       .  S
C1190      C1605   1.410   1_545  A
C1190      C1191   1.402       .  A
C1191      C1608   1.400   1_545  A
C1191     Br1198   1.917       .  S
C1192      C1607   1.401       .  A
C1192      C1193   1.412       .  A
C1192      H1197   1.083       .  S
C1193      C1194   1.405       .  A
C1194     Br1195   1.919       .  S
C1199      C1616   1.412   1_545  A
C1199      C1204   1.399       .  A
C1199      H1206   1.084   1_556  S
C1200      C1615   1.412       .  A
C1200      C1201   1.406       .  A
C1201      C1202   1.398       .  A
C1201     Br1208   1.921       .  S
C1202      C1619   1.409       .  A
C1202      H1207   1.084       .  S
C1203      C1618   1.409   1_545  A
C1203      C1204   1.400       .  A
C1204     Br1205   1.917       .  S
C1209      C1210   1.418       .  A
C1209      C1214   1.398       .  A
C1209      H1216   1.082       .  S
C1210      C1211   1.411       .  A
C1211      C1212   1.395       .  A
C1211     Br1218   1.923       .  S
C1212      C1213   1.403       .  A
C1212      H1217   1.079       .  S
C1213      C1214   1.395       .  A
C1214     Br1215   1.918       .  S
C1219      C1220   1.402       .  A
C1219      C1224   1.401       .  A
C1219      H1226   1.084       .  S
C1220      C1221   1.399       .  A
C1221      C1222   1.399       .  A
C1221     Br1228   1.919       .  S
C1222      C1223   1.415       .  A
C1222      H1227   1.083       .  S
C1223      C1224   1.418       .  A
C1224     Br1225   1.922       .  S
C1229      C1234   1.400       .  A
C1229      H1236   1.083       .  S
C1230      C1231   1.417       .  A
C1231      C1232   1.402       .  A
C1231     Br1238   1.917       .  S
C1232      H1237   1.083       .  S
C1233      C1234   1.401       .  A
C1234     Br1235   1.918       .  S
C1239      C1244   1.400       .  A
C1239      H1246   1.086       .  S
C1240      C1241   1.401       .  A
C1241      C1242   1.402       .  A
C1241     Br1248   1.918       .  S
C1242      H1247   1.083       .  S
C1243      C1244   1.416   1_556  A
C1244     Br1245   1.918       .  S
O1249     Cr1267   1.955       .  S
O1249      C1257   1.255       .  A
O1250     Cr1267   2.042       .  S
O1250      C1251   1.273       .  A
C1251      O1252   1.256       .  A
C1251      C1441   1.471       .  S
O1252     Cr1268   1.962       .  S
O1253     Cr1268   2.029       .  S
O1253      C1254   1.269       .  A
C1254      O1255   1.254       .  A
C1254      C1421   1.461       .  S
O1255     Cr1269   1.958       .  S
O1256     Cr1269   2.043       .  S
O1256      C1257   1.273       .  A
C1257      C1401   1.481       .  S
O1258      C1266   1.273       .  A
O1259     Cr1267   1.954       .  S
O1259      C1468   1.255   1_554  A
C1260      O1467   1.255       .  A
C1260      O1261   1.271       .  A
C1260      C1408   1.479       .  S
O1261     Cr1476   2.034       .  S
O1262     Cr1268   1.965       .  S
O1262      C1263   1.257       .  A
C1263      O1264   1.272       .  A
C1263      C1448   1.472       .  S
O1264     Cr1269   2.040       .  S
O1265     Cr1269   1.952       .  S
C1266      C1428   1.466       .  S
Cr1267     O1270   1.759       .  S
Cr1268     O1469   2.034   1_554  S
Cr1268     O1270   1.762       .  S
Cr1269     O1270   1.760       .  S
O1271     Cr1289   1.947       .  S
O1272     Cr1289   2.052       .  S
O1272      C1273   1.276       .  A
C1273      O1274   1.253       .  A
C1273      C1398   1.477       .  S
O1274     Cr1290   1.947       .  S
O1275      C1276   1.273       .  A
C1276      C1388   1.469       .  S
O1277     Cr1291   1.949       .  S
O1278      C1279   1.278       .  A
C1279      C1368   1.479       .  S
O1280     Cr1289   2.044       .  S
O1280      C1288   1.273       .  A
O1281     Cr1289   1.955       .  S
O1281      C1282   1.252       .  A
C1282      O1283   1.272       .  A
C1282      C1358   1.463       .  S
O1283     Cr1290   2.040       .  S
O1284     Cr1290   1.942       .  S
O1284      C1285   1.252       .  A
C1285      O1286   1.275       .  A
C1285      C1411   1.474       .  S
O1286     Cr1291   2.051       .  S
O1287     Cr1291   1.966       .  S
O1287      C1288   1.255       .  A
C1288      C1381   1.482       .  S
Cr1289     O1292   1.754       .  S
Cr1290     O1292   1.758       .  S
Cr1291     O1292   1.758       .  S
O1293     Cr1311   1.949       .  S
O1293      C1301   1.254       .  A
O1294     Cr1311   2.050       .  S
O1294      C1295   1.274       .  A
C1295      O1296   1.252       .  A
C1295      C1351   1.480       .  S
O1296     Cr1312   1.950       .  S
O1297     Cr1312   2.043       .  S
O1297      C1298   1.275       .  A
C1298      O1299   1.253       .  A
C1298      C1418   1.485       .  S
O1299     Cr1313   1.941       .  S
O1300     Cr1313   2.047       .  S
O1300      C1301   1.273       .  A
C1301      C1361   1.487       .  S
O1302     Cr1311   2.051       .  S
O1302      C1310   1.275       .  A
O1303     Cr1311   1.945       .  S
O1303      C1304   1.253       .  A
C1304      O1305   1.275       .  A
C1304      C1371   1.472       .  S
O1305     Cr1312   2.047       .  S
O1306     Cr1312   1.950       .  S
O1306      C1307   1.252       .  A
C1307      O1308   1.274       .  A
C1307      C1341   1.482       .  S
O1308     Cr1313   2.053       .  S
O1309     Cr1313   1.954       .  S
O1309      C1310   1.257       .  A
C1310      C1431   1.493       .  S
Cr1311     O1314   1.751       .  S
Cr1312     O1314   1.753       .  S
Cr1313     O1314   1.757       .  S
O1315     Cr1333   1.948       .  S
O1315      C1323   1.252       .  A
O1316     Cr1333   2.053       .  S
O1316      C1317   1.276       .  A
C1317      O1318   1.253       .  A
C1317      C1348   1.488       .  S
O1318     Cr1334   1.954       .  S
O1319     Cr1334   2.057       .  S
O1319      C1320   1.277       .  A
C1320      O1321   1.255       .  A
C1320      C1451   1.494       .  S
O1321     Cr1335   1.951       .  S
O1322     Cr1335   2.055       .  S
O1322      C1323   1.276       .  A
C1323      C1391   1.481       .  S
O1324      C1332   1.277       .  A
O1325     Cr1333   1.954       .  S
O1325      C1326   1.255       .  A
C1326      O1327   1.279       .  A
C1326      C1378   1.487       .  S
O1327     Cr1334   2.066       .  S
O1328     Cr1334   1.953       .  S
O1328      C1537   1.255       .  A
C1329      O1536   1.255   1_554  A
C1329      O1330   1.276       .  A
C1329      C1338   1.484       .  S
O1330     Cr1543   2.053   1_554  S
O1331     Cr1335   1.951       .  S
C1332      C1438   1.495       .  S
Cr1333     O1336   1.754       .  S
Cr1334     O1336   1.754       .  S
Cr1335     O1538   2.052       .  S
Cr1335     O1336   1.758       .  S
C1337      C1338   1.413       .  A
C1337      C1342   1.402       .  A
C1337      H1344   1.084   1_554  S
C1338      C1339   1.405       .  A
C1339      C1340   1.401       .  A
C1339     Br1346   1.918       .  S
C1340      C1341   1.412       .  A
C1340      H1345   1.084       .  S
C1341      C1342   1.403       .  A
C1342     Br1343   1.918       .  S
C1347      C1348   1.414       .  A
C1347      C1352   1.402       .  A
C1347      H1354   1.083       .  S
C1348      C1349   1.407       .  A
C1349      C1350   1.401       .  A
C1349     Br1356   1.918       .  S
C1350      C1351   1.410       .  A
C1350      H1355   1.084       .  S
C1351      C1352   1.402       .  A
C1352     Br1353   1.918       .  S
C1357      C1358   1.402       .  A
C1357      C1362   1.398       .  A
C1357      H1364   1.084       .  S
C1358      C1359   1.401       .  A
C1359      C1360   1.397       .  A
C1359     Br1366   1.919       .  S
C1360      C1361   1.414       .  A
C1360      H1365   1.083       .  S
C1361      C1362   1.415       .  A
C1362     Br1363   1.921       .  S
C1367      C1368   1.398       .  A
C1367      C1372   1.397       .  A
C1367      H1374   1.083       .  S
C1368      C1369   1.422       .  A
C1369      C1370   1.400       .  A
C1369     Br1376   1.923       .  S
C1370      C1371   1.395       .  A
C1370      H1375   1.083       .  S
C1371      C1372   1.415       .  A
C1372     Br1373   1.922       .  S
C1377      C1378   1.409       .  A
C1377      C1382   1.404       .  A
C1377      H1384   1.084       .  S
C1379      C1380   1.400       .  A
C1379     Br1386   1.910       .  S
C1380      C1381   1.403   1_455  A
C1380      H1385   1.084       .  S
C1382     Br1383   1.918       .  S
C1387      C1392   1.399       .  A
C1387      H1394   1.084   1_565  S
C1388      C1389   1.400       .  A
C1389      C1390   1.398   1_655  A
C1389     Br1396   1.919       .  S
C1390      H1395   1.084       .  S
C1391      C1392   1.406       .  A
C1392     Br1393   1.917       .  S
C1397      C1402   1.400       .  A
C1397      H1404   1.084       .  S
C1398      C1399   1.402       .  A
C1399     Br1406   1.918       .  S
C1400      C1401   1.412       .  A
C1400      H1405   1.083   1_565  S
C1401      C1402   1.405       .  A
C1402     Br1403   1.919       .  S
C1407      C1412   1.399       .  A
C1407      H1414   1.084       .  S
C1408      C1409   1.406       .  A
C1409      C1410   1.398       .  A
C1409     Br1416   1.921       .  S
C1410      H1415   1.084       .  S
C1411      C1412   1.400       .  A
C1412     Br1413   1.917       .  S
C1417      C1418   1.418       .  A
C1417      C1422   1.398       .  A
C1417      H1424   1.082       .  S
C1418      C1419   1.411       .  A
C1419      C1420   1.395       .  A
C1419     Br1426   1.923       .  S
C1420      C1421   1.403       .  A
C1420      H1425   1.079       .  S
C1421      C1422   1.395       .  A
C1422     Br1423   1.918       .  S
C1427      C1428   1.402       .  A
C1427      C1432   1.401       .  A
C1427      H1434   1.084       .  S
C1428      C1429   1.399       .  A
C1429      C1430   1.399       .  A
C1429     Br1436   1.919       .  S
C1430      C1431   1.415       .  A
C1430      H1435   1.083       .  S
C1431      C1432   1.418       .  A
C1432     Br1433   1.922       .  S
C1437      C1646   1.415   1_554  A
C1437      C1442   1.400       .  A
C1437      H1444   1.083       .  S
C1438      C1645   1.415       .  A
C1438      C1439   1.417       .  A
C1439      C1440   1.402       .  A
C1439     Br1446   1.917       .  S
C1440      C1649   1.402       .  A
C1440      H1445   1.083       .  S
C1441      C1648   1.402   1_554  A
C1441      C1442   1.401       .  A
C1442     Br1443   1.918       .  S
C1447      C1656   1.402       .  A
C1447      C1452   1.400       .  A
C1447      H1454   1.086       .  S
C1448      C1655   1.402       .  A
C1448      C1449   1.401       .  A
C1449      C1450   1.402   1_554  A
C1449     Br1456   1.918   1_554  S
C1450      C1659   1.415       .  A
C1450      H1455   1.083       .  S
C1451      C1658   1.415       .  A
C1451      C1452   1.416       .  A
C1452     Br1453   1.919       .  S
O1457     Cr1475   1.955       .  S
O1457      C1465   1.255       .  A
O1458     Cr1475   2.043       .  S
O1458      C1459   1.273       .  A
C1459      O1460   1.256       .  A
C1459      C1649   1.471       .  S
O1460     Cr1476   1.962       .  S
O1461     Cr1476   2.029       .  S
O1461      C1462   1.269       .  A
C1462      O1463   1.254       .  A
C1462      C1629   1.461       .  S
O1463     Cr1477   1.958       .  S
O1464     Cr1477   2.043       .  S
O1464      C1465   1.273       .  A
C1465      C1609   1.481       .  S
O1466      C1474   1.273       .  A
O1467     Cr1475   1.954       .  S
C1468      O1469   1.271       .  A
C1468      C1616   1.479       .  S
O1470     Cr1476   1.965       .  S
O1470      C1471   1.257       .  A
C1471      O1472   1.272       .  A
C1471      C1656   1.472       .  S
O1472     Cr1477   2.040       .  S
O1473     Cr1477   1.952       .  S
C1474      C1636   1.466       .  S
Cr1475     O1478   1.759       .  S
Cr1476     O1478   1.762       .  S
Cr1477     O1478   1.760       .  S
O1479     Cr1497   1.947       .  S
O1480     Cr1497   2.052       .  S
O1480      C1481   1.276       .  A
C1481      O1482   1.253       .  A
C1481      C1606   1.477       .  S
O1482     Cr1498   1.947       .  S
O1483      C1484   1.273       .  A
C1484      C1596   1.470       .  S
O1485     Cr1499   1.949       .  S
O1486      C1487   1.278       .  A
C1487      C1576   1.480       .  S
O1488     Cr1497   2.044       .  S
O1488      C1496   1.273       .  A
O1489     Cr1497   1.955       .  S
O1489      C1490   1.252       .  A
C1490      O1491   1.272       .  A
C1490      C1566   1.463       .  S
O1491     Cr1498   2.040       .  S
O1492     Cr1498   1.942       .  S
O1492      C1493   1.252       .  A
C1493      O1494   1.275       .  A
C1493      C1619   1.474       .  S
O1494     Cr1499   2.051       .  S
O1495     Cr1499   1.966       .  S
O1495      C1496   1.255       .  A
C1496      C1589   1.481       .  S
Cr1497     O1500   1.754       .  S
Cr1498     O1500   1.758       .  S
Cr1499     O1500   1.758       .  S
O1501     Cr1519   1.950       .  S
O1501      C1509   1.254       .  A
O1502     Cr1519   2.050       .  S
O1502      C1503   1.274       .  A
C1503      O1504   1.252       .  A
C1503      C1559   1.480       .  S
O1504     Cr1520   1.950       .  S
O1505     Cr1520   2.044       .  S
O1505      C1506   1.275       .  A
C1506      O1507   1.253       .  A
C1506      C1626   1.485       .  S
O1507     Cr1521   1.940       .  S
O1508     Cr1521   2.046       .  S
O1508      C1509   1.273       .  A
C1509      C1569   1.486       .  S
O1510     Cr1519   2.052       .  S
O1510      C1518   1.276       .  A
O1511     Cr1519   1.945       .  S
O1511      C1512   1.253       .  A
C1512      O1513   1.275       .  A
C1512      C1579   1.472       .  S
O1513     Cr1520   2.047       .  S
O1514     Cr1520   1.950       .  S
O1514      C1515   1.252       .  A
C1515      O1516   1.274       .  A
C1515      C1549   1.482       .  S
O1516     Cr1521   2.053       .  S
O1517     Cr1521   1.953       .  S
O1517      C1518   1.256       .  A
C1518      C1639   1.493       .  S
Cr1519     O1522   1.751       .  S
Cr1520     O1522   1.753       .  S
Cr1521     O1522   1.757       .  S
O1523     Cr1541   1.948       .  S
O1523      C1531   1.253       .  A
O1524     Cr1541   2.053       .  S
O1524      C1525   1.276       .  A
C1525      O1526   1.253       .  A
C1525      C1556   1.488       .  S
O1526     Cr1542   1.954       .  S
O1527     Cr1542   2.057       .  S
O1527      C1528   1.277       .  A
C1528      O1529   1.255       .  A
C1528      C1659   1.494       .  S
O1529     Cr1543   1.951       .  S
O1530     Cr1543   2.055       .  S
O1530      C1531   1.276       .  A
C1531      C1599   1.481       .  S
O1532      C1540   1.277       .  A
O1533     Cr1541   1.954       .  S
O1533      C1534   1.255       .  A
C1534      O1535   1.279       .  A
C1534      C1586   1.487       .  S
O1535     Cr1542   2.065       .  S
O1536     Cr1542   1.953       .  S
C1537      O1538   1.276       .  A
C1537      C1546   1.484       .  S
O1539     Cr1543   1.951       .  S
C1540      C1646   1.494       .  S
Cr1541     O1544   1.754       .  S
Cr1542     O1544   1.754       .  S
Cr1543     O1544   1.758       .  S
C1545      C1546   1.413       .  A
C1545      C1550   1.402       .  A
C1545      H1552   1.084       .  S
C1546      C1547   1.405       .  A
C1547      C1548   1.401       .  A
C1547     Br1554   1.918       .  S
C1548      C1549   1.411       .  A
C1548      H1553   1.084       .  S
C1549      C1550   1.403       .  A
C1550     Br1551   1.918       .  S
C1555      C1556   1.414       .  A
C1555      C1560   1.402       .  A
C1555      H1562   1.083       .  S
C1556      C1557   1.407       .  A
C1557      C1558   1.402       .  A
C1557     Br1564   1.918       .  S
C1558      C1559   1.410       .  A
C1558      H1563   1.084       .  S
C1559      C1560   1.402       .  A
C1560     Br1561   1.918       .  S
C1565      C1566   1.402       .  A
C1565      C1570   1.398       .  A
C1565      H1572   1.084       .  S
C1566      C1567   1.401       .  A
C1567      C1568   1.397       .  A
C1567     Br1574   1.919       .  S
C1568      C1569   1.414       .  A
C1568      H1573   1.083       .  S
C1569      C1570   1.415       .  A
C1570     Br1571   1.921       .  S
C1575      C1576   1.398       .  A
C1575      C1580   1.397       .  A
C1575      H1582   1.083       .  S
C1576      C1577   1.422       .  A
C1577      C1578   1.400       .  A
C1577     Br1584   1.923       .  S
C1578      C1579   1.395       .  A
C1578      H1583   1.083       .  S
C1579      C1580   1.415       .  A
C1580     Br1581   1.921       .  S
C1585      C1586   1.409       .  A
C1585      C1590   1.404       .  A
C1585      H1592   1.084       .  S
C1587      C1588   1.400       .  A
C1587     Br1594   1.910       .  S
C1588      C1589   1.403   1_455  A
C1588      H1593   1.084       .  S
C1590     Br1591   1.918       .  S
C1595      C1600   1.399       .  A
C1595      H1602   1.084   1_565  S
C1596      C1597   1.400       .  A
C1597      C1598   1.398   1_655  A
C1597     Br1604   1.919       .  S
C1598      H1603   1.084       .  S
C1599      C1600   1.406       .  A
C1600     Br1601   1.917       .  S
C1605      C1610   1.400       .  A
C1605      H1612   1.084       .  S
C1606      C1607   1.402       .  A
C1607     Br1614   1.917       .  S
C1608      C1609   1.412       .  A
C1608      H1613   1.083   1_565  S
C1609      C1610   1.405       .  A
C1610     Br1611   1.919       .  S
C1615      C1620   1.399       .  A
C1615      H1622   1.084   1_556  S
C1616      C1617   1.407       .  A
C1617      C1618   1.398       .  A
C1617     Br1624   1.921       .  S
C1618      H1623   1.084       .  S
C1619      C1620   1.400       .  A
C1620     Br1621   1.916       .  S
C1625      C1626   1.418       .  A
C1625      C1630   1.398       .  A
C1625      H1632   1.082       .  S
C1626      C1627   1.411       .  A
C1627      C1628   1.395       .  A
C1627     Br1634   1.922       .  S
C1628      C1629   1.403       .  A
C1628      H1633   1.079       .  S
C1629      C1630   1.395       .  A
C1630     Br1631   1.918       .  S
C1635      C1636   1.402       .  A
C1635      C1640   1.401       .  A
C1635      H1642   1.084       .  S
C1636      C1637   1.399       .  A
C1637      C1638   1.399       .  A
C1637     Br1644   1.919       .  S
C1638      C1639   1.415       .  A
C1638      H1643   1.083       .  S
C1639      C1640   1.418       .  A
C1640     Br1641   1.922       .  S
C1645      C1650   1.400       .  A
C1645      H1652   1.083       .  S
C1646      C1647   1.417       .  A
C1647      C1648   1.402       .  A
C1647     Br1654   1.917       .  S
C1648      H1653   1.083       .  S
C1649      C1650   1.401       .  A
C1650     Br1651   1.918       .  S
C1655      C1660   1.400       .  A
C1655      H1662   1.086       .  S
C1656      C1657   1.401       .  A
C1657      C1658   1.402       .  A
C1657     Br1664   1.918       .  S
C1658      H1663   1.083       .  S
C1659      C1660   1.416   1_556  A
C1660     Br1661   1.919       .  S
