geometry optimzed in LAMMPS
_audit_creation_date              2020-11-30 
_audit_creation_method            'lammps2cif' 
_symmetry_space_group_name_H-M    'P1' 
_symmetry_Int_Tables_number       1 
_symmetry_cell_setting            triclinic 
loop_ 
_symmetry_equiv_pos_as_xyz 
  x,y,z 
_cell_length_a                    27.68209346 
_cell_length_b                    28.166709286152855 
_cell_length_c                    28.001300180290187 
_cell_angle_alpha                 89.70441078446093 
_cell_angle_beta                  90.44042992603922 
_cell_angle_gamma                 90.37858876446023 
loop_ 
_atom_site_label 
_atom_site_type_symbol 
_atom_site_fract_x 
_atom_site_fract_y 
_atom_site_fract_z 
_atom_site_charge 
O1          O  0.17341116  0.45186459  0.04501165    -0.80000
O2          O  0.17591532  0.55055338  0.94982544    -0.80000
O3          O  0.23257658  0.54726181  0.10153968    -0.80000
O4          O  0.23702351  0.45564976  0.89728787    -0.79900
O5          O  0.17465735  0.55083163  0.04808336    -0.80100
O6          O  0.17697180  0.45222542  0.94749525    -0.80000
O7          O  0.23507008  0.54768339  0.89822219    -0.82400
O8          O  0.22994585  0.45512350  0.10021174    -0.80000
C9          C  0.18596870  0.44857802  0.08817163     1.09700
C10         C  0.19058682  0.55377200  0.90746155     1.09600
C11         C  0.18853262  0.55467032  0.09086088     1.09700
C12         C  0.19243495  0.44886058  0.90554215     1.09600
O13         O  0.26923041  0.40119264  0.95415810    -0.80000
O14         O  0.26760553  0.60164233  0.04631085    -0.80100
O15         O  0.32382903  0.45197207  0.05158958    -0.80000
O16         O  0.32663899  0.55172480  0.95208291    -0.80000
O17         O  0.26768298  0.60303938  0.95365854    -0.80000
O18         O  0.26487442  0.40015626  0.04666771    -0.80000
O19         O  0.32754741  0.45424280  0.95216932    -0.79900
O20         O  0.32529251  0.54885407  0.05163822    -0.80000
Co21       Co  0.22144672  0.43251186  0.99833875     1.51500
Co22       Co  0.22172651  0.57029664  0.99947369     1.51700
Co23       Co  0.27773576  0.50079103  0.07007951     1.51600
Co24       Co  0.28112251  0.50233072  0.93124834     1.51500
O25         O  0.25055347  0.50150039  0.99980648    -1.41900
C26         C  0.31363727  0.41174051  0.94855294     1.09600
C27         C  0.31182127  0.59138903  0.05306283     1.09700
C28         C  0.30916311  0.40971139  0.05428806     1.09700
C29         C  0.31215681  0.59380954  0.94780563     1.09600
O30         O  0.76860147  0.45075169  0.09806473    -0.80000
O31         O  0.77218825  0.54642940  0.89729750    -0.80000
O32         O  0.82636783  0.44807206  0.94569476    -0.80000
O33         O  0.82898008  0.54653036  0.05089166    -0.79900
O34         O  0.76609865  0.45449055  0.89497853    -0.80100
O35         O  0.76844638  0.54281503  0.10057943    -0.80000
O36         O  0.83083382  0.54846660  0.95075987    -0.80000
O37         O  0.82751304  0.44626374  0.04616918    -0.80000
C38         C  0.81292083  0.44351749  0.08885725     1.09700
C39         C  0.81674297  0.55224412  0.90780284     1.09600
C40         C  0.81055401  0.44682013  0.90320315     1.09700
C41         C  0.81326746  0.54896654  0.09307431     1.09600
O42         O  0.67788522  0.54715229  0.04637378    -0.80000
O43         O  0.67485959  0.45282472  0.94560721    -0.80100
O44         O  0.73430157  0.39685998  0.04219657    -0.80000
O45         O  0.74127135  0.60215976  0.95253117    -0.80000
O46         O  0.67954815  0.55330317  0.94705271    -0.80000
O47         O  0.67649888  0.44934929  0.04505734    -0.80000
O48         O  0.73731603  0.59910508  0.04509744    -0.79900
O49         O  0.73218119  0.39918833  0.94964337    -0.80000
Co50       Co  0.72327890  0.49759853  0.06613164     1.51500
Co51       Co  0.72347071  0.50169467  0.92779674     1.51700
Co52       Co  0.78006103  0.42911085  0.99597112     1.51600
Co53       Co  0.78412494  0.56752706  0.99976544     1.51500
O54         O  0.75297196  0.49896526  0.99732107    -1.41900
C55         C  0.69265564  0.58937583  0.05060674     1.09600
C56         C  0.68791318  0.40978816  0.94314223     1.09700
C57         C  0.69017958  0.40695460  0.04902902     1.09700
C58         C  0.69651809  0.59511496  0.94472903     1.09600
O59         O  0.44779652  0.04507060  0.31675218    -0.80000
O60         O  0.54140609  0.94348990  0.31949168    -0.80000
O61         O  0.39239648  0.95318154  0.25125566    -0.80000
O62         O  0.60140986  0.04046355  0.26493530    -0.79900
O63         O  0.44076847  0.94581045  0.31307643    -0.80100
O64         O  0.54645372  0.04275677  0.32048793    -0.80000
O65         O  0.59764229  0.94827447  0.26470809    -0.80000
O66         O  0.39617860  0.04507469  0.25697335    -0.80000
C67         C  0.40540231  0.05060783  0.30126364     1.09700
C68         C  0.58535787  0.94130704  0.30793166     1.09600
C69         C  0.39852366  0.94524076  0.29549389     1.09700
C70         C  0.58997926  0.04623318  0.30839254     1.09600
O71         O  0.54810635  0.09704158  0.23013685    -0.80000
O72         O  0.44894950  0.89884483  0.22007758    -0.80100
O73         O  0.45266701  0.05028248  0.16812226    -0.80000
O74         O  0.55006738  0.94801084  0.17049951    -0.80000
O75         O  0.54237403  0.89480868  0.22722414    -0.80000
O76         O  0.45449256  0.09993629  0.22780497    -0.80000
O77         O  0.55259193  0.04566655  0.17178745    -0.79900
O78         O  0.44963616  0.95354449  0.16397552    -0.80000
Co79       Co  0.49911427  0.06500883  0.27335579     1.51500
Co80       Co  0.49358913  0.92703387  0.26989921     1.51700
Co81       Co  0.42905228  0.00036868  0.21078776     1.51600
Co82       Co  0.56907874  0.99571754  0.21797928     1.51500
O83         O  0.49771957  0.99692703  0.24311468    -1.41900
C84         C  0.55555335  0.08786166  0.18634746     1.09600
C85         C  0.44545439  0.91068251  0.17625137     1.09700
C86         C  0.44842030  0.09181962  0.18355104     1.09700
C87         C  0.55210397  0.90536599  0.18408428     1.09600
O88         O  0.39644909  0.05034936  0.73236879    -0.80000
O89         O  0.58002479  0.95047068  0.71356093    -0.80000
O90         O  0.55349086  0.05294346  0.67939452    -0.80000
O91         O  0.46105620  0.95015291  0.67959709    -0.79900
O92         O  0.60407441  0.03765046  0.73788623    -0.80100
O93         O  0.40181417  0.95611027  0.73171721    -0.80000
O94         O  0.53272796  0.88664915  0.70499160    -0.80000
O95         O  0.45189475  0.05958099  0.67649293    -0.80000
C96         C  0.40798388  0.05937676  0.68919031     1.09700
C97         C  0.57139786  0.90904229  0.69505161     1.09600
C98         C  0.59653031  0.05026212  0.69498121     1.09700
C99         C  0.41631382  0.94766469  0.68948085     1.09600
O100        O  0.44837676  0.95572809  0.82578789    -0.80000
O101        O  0.55390932  0.03910108  0.82612895    -0.80100
O102        O  0.45535779  0.10705131  0.76783007    -0.80000
O103        O  0.54980945  0.92121202  0.79353017    -0.80000
O104        O  0.61586567  0.96544590  0.80321986    -0.80000
O105        O  0.44489498  0.05359370  0.82475123    -0.80000
O106        O  0.46031233  0.90239167  0.77063897    -0.79900
O107        O  0.55087145  0.09790060  0.77325646    -0.80000
Co108      Co  0.42720436  0.00409783  0.77868423     1.51500
Co109      Co  0.56102795  0.99291810  0.77304581     1.51700
Co110      Co  0.50261212  0.07489966  0.72417523     1.51600
Co111      Co  0.50738269  0.94186146  0.73347145     1.51500
O112        O  0.49461212  0.00867929  0.75194941    -1.41900
C113        C  0.44901614  0.91274731  0.81315906     1.09600
C114        C  0.55770738  0.08318840  0.81600801     1.09700
C115        C  0.44594038  0.09636742  0.81109231     1.09700
C116        C  0.59225092  0.92776102  0.81238385     1.09600
O117        O  0.05016931  0.32660826  0.44639175    -0.80000
O118        O  0.88125988  0.29839601  0.53788312    -0.80000
O119        O  0.94335952  0.26973678  0.40485768    -0.80000
O120        O  0.03999707  0.27169369  0.59876763    -0.79900
O121        O  0.94060572  0.32301200  0.46247362    -0.80100
O122        O  0.04971599  0.32700010  0.54466661    -0.80000
O123        O  0.94963426  0.29355627  0.57999471    -0.80000
O124        O  0.03856632  0.26996043  0.39313409    -0.80000
C125        C  0.04733771  0.31323377  0.40346987     1.09700
C126        C  0.90651322  0.31038051  0.57399728     1.09600
C127        C  0.93610624  0.31222063  0.41860694     1.09700
C128        C  0.05097253  0.31414030  0.58786314     1.09600
O129        O  0.09716747  0.23402024  0.54336025    -0.80000
O130        O  0.89331651  0.23142565  0.46656608    -0.80100
O131        O  0.04667798  0.17942555  0.44235582    -0.80000
O132        O  0.96800272  0.20619679  0.61745138    -0.80000
O133        O  0.91964424  0.21161173  0.55390949    -0.80000
O134        O  0.10076628  0.23696916  0.44838013    -0.80000
O135        O  0.03773285  0.18162838  0.55185106    -0.79900
O136        O  0.94796370  0.17741358  0.45330272    -0.80000
Co137      Co  0.07020003  0.28107080  0.49576784     1.51500
Co138      Co  0.93603901  0.27038706  0.50961913     1.51700
Co139      Co  0.99449099  0.22416101  0.42756980     1.51600
Co140      Co  0.99181933  0.23440779  0.56052358     1.51500
O141        O  0.00314851  0.25258900  0.49301422    -1.41900
C142        C  0.08255043  0.19188994  0.55283560     1.09600
C143        C  0.90414992  0.18918075  0.45538124     1.09700
C144        C  0.08993470  0.19372118  0.44017161     1.09700
C145        C  0.92915586  0.19461587  0.59597764     1.09600
O146        O  0.05035546  0.74047084  0.39893748    -0.80000
O147        O  0.94745662  0.72918661  0.59461039    -0.80000
O148        O  0.04523031  0.67713646  0.54787354    -0.80000
O149        O  0.94925884  0.68409108  0.43757097    -0.79900
O150        O  0.04073913  0.73289355  0.60156227    -0.80100
O151        O  0.95699516  0.74732728  0.39236475    -0.80000
O152        O  0.94467152  0.67498865  0.53817042    -0.80000
O153        O  0.04987465  0.68071843  0.44972994    -0.80000
C154        C  0.05522621  0.69625878  0.40776507     1.09700
C155        C  0.94130092  0.68618173  0.58184230     1.09600
C156        C  0.04823228  0.68983203  0.59081427     1.09700
C157        C  0.94859515  0.70322133  0.39652093     1.09600
O158        O  0.95519023  0.83245380  0.45023181    -0.80000
O159        O  0.04519157  0.82527357  0.55459929    -0.80100
O160        O  0.10523113  0.76890808  0.45801298    -0.80000
O161        O  0.89309837  0.76447195  0.53941113    -0.80000
O162        O  0.94402546  0.82341736  0.54933738    -0.80000
O163        O  0.05564864  0.82886715  0.45535483    -0.80000
O164        O  0.89991330  0.77583809  0.44787991    -0.79900
O165        O  0.09878080  0.76811600  0.55038645    -0.80000
Co166      Co  0.00431254  0.78654237  0.43060861     1.51500
Co167      Co  0.99461708  0.77784206  0.56857540     1.51700
Co168      Co  0.06836817  0.72407048  0.50123065     1.51600
Co169      Co  0.92839591  0.72504165  0.49104205     1.51500
O170        O  0.99881837  0.75337548  0.49786235    -1.41900
C171        C  0.91157201  0.81967657  0.44514033     1.09600
C172        C  0.08846663  0.81140911  0.55832020     1.09700
C173        C  0.09816868  0.81318518  0.45334246     1.09700
C174        C  0.90118148  0.80762305  0.54987972     1.09600
C175        C  0.69061909  0.88894293  0.62724643     0.18900
C176        C  0.68550654  0.84919011  0.59740686    -0.19200
C177        C  0.72606994  0.82908907  0.57607144    -0.11500
C178        C  0.77254481  0.84815031  0.58383141     0.21100
C179        C  0.77733776  0.88887567  0.61241012    -0.20900
C180        C  0.73678310  0.90908508  0.63351689    -0.11700
C181        C  0.81480027  0.82226351  0.56438669    -0.15900
C182        C  0.86087055  0.83836590  0.56467952    -0.29700
C183        C  0.64951645  0.91023494  0.65338491    -0.04000
C184        C  0.60735732  0.88781342  0.66278634    -0.40500
H185        H  0.65049900  0.83332641  0.59049748     0.12300
H186        H  0.72117882  0.79791372  0.55400410     0.11900
H187        H  0.81222251  0.90461630  0.61998371     0.11300
H188        H  0.74176211  0.93990556  0.65608413     0.11600
H189        H  0.80754966  0.78706743  0.55016380     0.14300
H190        H  0.86974822  0.87385253  0.57677588     0.13100
H191        H  0.65585786  0.94513636  0.66871044     0.10800
H192        H  0.60023920  0.85232847  0.64955291     0.12800
C193        C  0.21382886  0.86461393  0.59062257     0.18900
C194        C  0.26153392  0.85473959  0.57719705    -0.19200
C195        C  0.30067623  0.87911847  0.59785236    -0.11500
C196        C  0.29285426  0.91381441  0.63288178     0.21100
C197        C  0.24503687  0.92481884  0.64499699    -0.20900
C198        C  0.20599574  0.90058046  0.62428113    -0.11700
C199        C  0.33262752  0.93556674  0.66172540    -0.15900
C200        C  0.38045226  0.93169483  0.65323349    -0.29700
C201        C  0.17394747  0.83377031  0.57225998    -0.04000
C202        C  0.12672244  0.84524010  0.57333653    -0.40500
H203        H  0.26866169  0.82687719  0.55177427     0.12300
H204        H  0.33676519  0.86897564  0.58780334     0.11900
H205        H  0.23783053  0.95115088  0.67206014     0.11300
H206        H  0.17008293  0.90872290  0.63656958     0.11600
H207        H  0.32157220  0.95434695  0.69362434     0.14300
H208        H  0.39351553  0.91550119  0.62081047     0.13100
H209        H  0.18408145  0.79966982  0.55749300     0.10800
H210        H  0.11552160  0.88003474  0.58516908     0.12800
C211        C  0.81048529  0.12474413  0.61815176     0.18900
C212        C  0.76888691  0.11689914  0.58999447    -0.19200
C213        C  0.72761123  0.09550140  0.60935689    -0.11500
C214        C  0.72705142  0.08146553  0.65759747     0.21100
C215        C  0.76917319  0.08774464  0.68522813    -0.20900
C216        C  0.81033248  0.10926435  0.66597431    -0.11700
C217        C  0.68356926  0.06136992  0.68143185    -0.15900
C218        C  0.63782794  0.06429670  0.66459868    -0.29700
C219        C  0.85162653  0.15137231  0.59654736    -0.04000
C220        C  0.89380137  0.16223140  0.61874363    -0.40500
H221        H  0.76798126  0.12812572  0.55291757     0.12300
H222        H  0.69645689  0.09034264  0.58642501     0.11900
H223        H  0.76989603  0.07701695  0.72244334     0.11300
H224        H  0.84121840  0.11433578  0.68920146     0.11600
H225        H  0.68935142  0.04623157  0.71679401     0.14300
H226        H  0.63006904  0.07979993  0.62990059     0.13100
H227        H  0.84574655  0.16462891  0.56044452     0.10800
H228        H  0.90183504  0.14963310  0.65450369     0.12800
C229        C  0.28326943  0.09007401  0.63379269     0.18900
C230        C  0.23522571  0.07826553  0.64491765    -0.19200
C231        C  0.19654667  0.10012379  0.62113653    -0.11500
C232        C  0.20513650  0.13448751  0.58548735     0.21100
C233        C  0.25315800  0.14481710  0.57301261    -0.20900
C234        C  0.29178982  0.12304724  0.59681498    -0.11700
C235        C  0.16609550  0.16423223  0.56422476    -0.15900
C236        C  0.11821353  0.15588158  0.56837396    -0.29700
C237        C  0.32277811  0.07097359  0.66473986    -0.04000
C238        C  0.37020363  0.07301562  0.65409412    -0.40500
H239        H  0.22753308  0.05316032  0.67334776     0.12300
H240        H  0.16031138  0.09147631  0.63249385     0.11900
H241        H  0.26093004  0.17129213  0.54587455     0.11300
H242        H  0.32799263  0.13402674  0.58748345     0.11600
H243        H  0.17770634  0.19622974  0.54556322     0.14300
H244        H  0.10480299  0.12329815  0.58437491     0.13100
H245        H  0.31219279  0.05565769  0.69883566     0.10800
H246        H  0.38205602  0.08577200  0.61950244     0.12800
C247        C  0.78770164  0.87489209  0.41653734     0.18900
C248        C  0.73997118  0.86406242  0.42940794    -0.19200
C249        C  0.70101817  0.88501893  0.40544995    -0.11500
C250        C  0.70908672  0.91747447  0.36789506     0.21100
C251        C  0.75684998  0.93051368  0.35710308    -0.20900
C252        C  0.79580423  0.90952019  0.38104972    -0.11700
C253        C  0.66970832  0.93425538  0.33562523    -0.15900
C254        C  0.62215810  0.92917867  0.34437445    -0.29700
C255        C  0.82708327  0.84464051  0.43591741    -0.04000
C256        C  0.87445739  0.85534707  0.43333356    -0.40500
H257        H  0.73273316  0.83746355  0.45657848     0.12300
H258        H  0.66504350  0.87342808  0.41484641     0.11900
H259        H  0.76416596  0.95537371  0.32835688     0.11300
H260        H  0.83189951  0.91844720  0.36943745     0.11600
H261        H  0.68059972  0.95030234  0.30194841     0.14300
H262        H  0.60953287  0.91594670  0.37850052     0.13100
H263        H  0.81646432  0.81055809  0.45110689     0.10800
H264        H  0.88647827  0.89011750  0.42137169     0.12800
C265        C  0.22848038  0.85935775  0.43258558     0.18900
C266        C  0.22539156  0.90087052  0.40448618    -0.19200
C267        C  0.26720622  0.92200629  0.38588161    -0.11500
C268        C  0.31291862  0.90202045  0.39478922     0.21100
C269        C  0.31621057  0.86275447  0.42553323    -0.20900
C270        C  0.27446073  0.84138441  0.44377719    -0.11700
C271        C  0.35714323  0.91899455  0.36988372    -0.15900
C272        C  0.35539960  0.93486157  0.32455245    -0.29700
C273        C  0.18528936  0.83094543  0.44692802    -0.04000
C274        C  0.13915813  0.84587785  0.44399790    -0.40500
H275        H  0.19092495  0.91603625  0.39476915     0.12300
H276        H  0.26354754  0.95325527  0.36350085     0.11900
H277        H  0.35097529  0.84694378  0.43333129     0.11300
H278        H  0.27805939  0.80949599  0.46525514     0.11600
H279        H  0.39204054  0.91325117  0.38691028     0.14300
H280        H  0.32074875  0.93744452  0.30631458     0.13100
H281        H  0.19192990  0.79491294  0.45931860     0.10800
H282        H  0.13084942  0.88218502  0.43414907     0.12800
C283        C  0.71037459  0.08360789  0.36635124     0.18900
C284        C  0.75924451  0.07477370  0.35752672    -0.19200
C285        C  0.79531684  0.09939532  0.38239965    -0.11500
C286        C  0.78313750  0.13348842  0.41684727     0.21100
C287        C  0.73428696  0.14124458  0.42671982    -0.20900
C288        C  0.69819907  0.11659994  0.40184996    -0.11700
C289        C  0.81991682  0.16511225  0.43906611    -0.15900
C290        C  0.86697759  0.15420142  0.44168283    -0.29700
C291        C  0.67361051  0.06230315  0.33403825    -0.04000
C292        C  0.62640235  0.05971988  0.34441928    -0.40500
H293        H  0.76956306  0.05004723  0.32996512     0.12300
H294        H  0.83242376  0.09327979  0.37253100     0.11900
H295        H  0.72396896  0.16767724  0.45263172     0.11300
H296        H  0.66103700  0.12556630  0.40890455     0.11600
H297        H  0.80803786  0.19942589  0.45194271     0.14300
H298        H  0.87935970  0.11934977  0.43120162     0.13100
H299        H  0.68573330  0.04998392  0.29942960     0.10800
H300        H  0.61357171  0.06907351  0.37961021     0.12800
C301        C  0.21123295  0.14239627  0.40031163     0.18900
C302        C  0.25990298  0.14938379  0.41277393    -0.19200
C303        C  0.29633464  0.12574868  0.38832439    -0.11500
C304        C  0.28463223  0.09466926  0.35066908     0.21100
C305        C  0.23594346  0.08717675  0.33874306    -0.20900
C306        C  0.19955708  0.11066530  0.36324678    -0.11700
C307        C  0.32201715  0.07308493  0.32016251    -0.15900
C308        C  0.36789130  0.06648127  0.33442378    -0.29700
C309        C  0.17410493  0.17225856  0.42307431    -0.04000
C310        C  0.12707122  0.16032250  0.42430039    -0.40500
H311        H  0.26982616  0.17415667  0.44071368     0.12300
H312        H  0.33347708  0.13364648  0.39769735     0.11900
H313        H  0.22605921  0.06395204  0.30947600     0.11300
H314        H  0.16263283  0.10544728  0.35143712     0.11600
H315        H  0.31139716  0.06288928  0.28416787     0.14300
H316        H  0.37883181  0.07395668  0.37091801     0.13100
H317        H  0.18582159  0.20591508  0.43823359     0.10800
H318        H  0.11498665  0.12567852  0.41214626     0.12800
C319        C  0.63929219  0.71041969  0.08570181     0.18900
C320        C  0.65097196  0.75800741  0.07584210    -0.19200
C321        C  0.62662753  0.79489280  0.09842841    -0.11500
C322        C  0.58990706  0.78487680  0.13159109     0.21100
C323        C  0.57713223  0.73733884  0.14022901    -0.20900
C324        C  0.60140346  0.70046115  0.11758718    -0.11700
C325        C  0.56798078  0.82232450  0.16159026    -0.15900
C326        C  0.56833271  0.86879853  0.15030750    -0.29700
C327        C  0.67066115  0.67263412  0.06612059    -0.04000
C328        C  0.65813868  0.62644866  0.06445067    -0.40500
H329        H  0.68022119  0.76668791  0.05175840     0.12300
H330        H  0.63850951  0.83089397  0.09152331     0.11900
H331        H  0.54938068  0.72860650  0.16595279     0.11300
H332        H  0.59187203  0.66441634  0.12721453     0.11600
H333        H  0.55184435  0.81113194  0.19512174     0.14300
H334        H  0.58157719  0.88079415  0.11591778     0.13100
H335        H  0.70621115  0.68327306  0.05356704     0.10800
H336        H  0.62200272  0.61500525  0.07403857     0.12800
C337        C  0.58971648  0.21025327  0.13410470     0.18900
C338        C  0.57783652  0.25751967  0.14410539    -0.19200
C339        C  0.60103849  0.29503957  0.12048708    -0.11500
C340        C  0.63678444  0.28588156  0.08628909     0.21100
C341        C  0.64740904  0.23865030  0.07515967    -0.20900
C342        C  0.62425352  0.20121182  0.09869986    -0.11700
C343        C  0.66750280  0.32395502  0.06545572    -0.15900
C344        C  0.65544273  0.37007893  0.06421996    -0.29700
C345        C  0.56946145  0.17182508  0.16466571    -0.04000
C346        C  0.56968657  0.12567023  0.15260126    -0.40500
H347        H  0.55169643  0.26547753  0.17148577     0.12300
H348        H  0.59252947  0.33088627  0.13098119     0.11900
H349        H  0.67508853  0.23064281  0.04931558     0.11300
H350        H  0.63556643  0.16551497  0.09063543     0.11600
H351        H  0.70234772  0.31349506  0.05142095     0.14300
H352        H  0.61992955  0.38144333  0.07536684     0.13100
H353        H  0.55503189  0.18187705  0.19914636     0.10800
H354        H  0.58095218  0.11481061  0.11732758     0.12800
C355        C  0.61263349  0.80604204  0.87427049     0.18900
C356        C  0.59492726  0.76060894  0.86271868    -0.19200
C357        C  0.61565845  0.71973827  0.88257814    -0.11500
C358        C  0.65436891  0.72332191  0.91523722     0.21100
C359        C  0.67091034  0.76887535  0.92815277    -0.20900
C360        C  0.65031660  0.80980058  0.90804560    -0.11700
C361        C  0.68110844  0.68094866  0.93346347    -0.15900
C362        C  0.66510264  0.63553966  0.93099351    -0.29700
C363        C  0.59102404  0.84796988  0.84953542    -0.04000
C364        C  0.61320299  0.89052685  0.84387450    -0.40500
H365        H  0.56575231  0.75659787  0.83700178     0.12300
H366        H  0.60217972  0.68560272  0.87086938     0.11900
H367        H  0.70053947  0.77282228  0.95335233     0.11300
H368        H  0.66416256  0.84410159  0.91892106     0.11600
H369        H  0.71662411  0.68760760  0.94895586     0.14300
H370        H  0.62891905  0.62748698  0.91823201     0.13100
H371        H  0.55645375  0.84211525  0.83175923     0.10800
H372        H  0.64870508  0.89698358  0.85924466     0.12800
C373        C  0.58637190  0.20473412  0.87530750     0.18900
C374        C  0.62468100  0.19849211  0.90796153    -0.19200
C375        C  0.64746685  0.23795887  0.92898905    -0.11500
C376        C  0.63273166  0.28457030  0.91802941     0.21100
C377        C  0.59260460  0.29054350  0.88746586    -0.20900
C378        C  0.56988492  0.25112592  0.86646006    -0.11700
C379        C  0.66332356  0.32524371  0.93518811    -0.15900
C380        C  0.65228155  0.37185776  0.93086375    -0.29700
C381        C  0.56657595  0.16535256  0.84520743    -0.04000
C382        C  0.57278231  0.11826434  0.85291466    -0.40500
H383        H  0.63893001  0.16357038  0.91547371     0.12300
H384        H  0.67819557  0.23206812  0.95241306     0.11900
H385        H  0.57992484  0.32545862  0.87760287     0.11300
H386        H  0.54045583  0.25711886  0.84146435     0.11600
H387        H  0.69809681  0.31609958  0.95088061     0.14300
H388        H  0.61716785  0.38279486  0.91766008     0.13100
H389        H  0.54679273  0.17622547  0.81332997     0.10800
H390        H  0.58962503  0.10540373  0.88554653     0.12800
C391        C  0.86910678  0.58387985  0.78375407     0.18900
C392        C  0.85701676  0.57106161  0.73670063    -0.19200
C393        C  0.87914802  0.59333461  0.69767677    -0.11500
C394        C  0.91401632  0.62919981  0.70491353     0.21100
C395        C  0.92767619  0.64047901  0.75200147    -0.20900
C396        C  0.90556117  0.61818751  0.79101400    -0.11700
C397        C  0.93280740  0.65949612  0.66530361    -0.15900
C398        C  0.92809833  0.65006100  0.61822950    -0.29700
C399        C  0.83909326  0.56472095  0.82347197    -0.04000
C400        C  0.85147137  0.56609350  0.87013773    -0.40500
H401        H  0.82894096  0.54487833  0.73004731     0.12300
H402        H  0.86693482  0.58390533  0.66220620     0.11900
H403        H  0.95425631  0.66810748  0.75870931     0.11300
H404        H  0.91544257  0.62982440  0.82651849     0.11600
H405        H  0.95008271  0.69268775  0.67571418     0.14300
H406        H  0.91375558  0.61629723  0.60604098     0.13100
H407        H  0.80413882  0.54972272  0.81364895     0.10800
H408        H  0.88707201  0.57822362  0.88120921     0.12800
C409        C  0.90283928  0.60914070  0.30646889     0.18900
C410        C  0.86487164  0.57607276  0.30891464    -0.19200
C411        C  0.84323220  0.55853571  0.26721760    -0.11500
C412        C  0.85961482  0.57278805  0.22193889     0.21100
C413        C  0.89948089  0.60396869  0.21936150    -0.20900
C414        C  0.92094832  0.62181377  0.26117988    -0.11700
C415        C  0.83124498  0.55757539  0.17909875    -0.15900
C416        C  0.84627184  0.56068736  0.13340751    -0.29700
C417        C  0.92067844  0.63160007  0.35150428    -0.04000
C418        C  0.93729808  0.67653537  0.35243285    -0.40500
H419        H  0.85041787  0.56538672  0.34319952     0.12300
H420        H  0.81252520  0.53474611  0.27040159     0.11900
H421        H  0.91312592  0.61617947  0.18534867     0.11300
H422        H  0.95123468  0.64606291  0.25784566     0.11600
H423        H  0.79525433  0.54347943  0.18576508     0.14300
H424        H  0.88275097  0.57214711  0.12519123     0.13100
H425        H  0.91530780  0.61276658  0.38503565     0.10800
H426        H  0.93967262  0.69658074  0.31931491     0.12800
C427        C  0.89263282  0.38089509  0.69105049     0.18900
C428        C  0.91710764  0.37784048  0.73514281    -0.19200
C429        C  0.89743789  0.39749613  0.77645999    -0.11500
C430        C  0.85284366  0.42114774  0.77438800     0.21100
C431        C  0.82993874  0.42659663  0.72972818    -0.20900
C432        C  0.84949149  0.40683899  0.68853663    -0.11700
C433        C  0.82683555  0.43794260  0.81746819    -0.15900
C434        C  0.84272282  0.43461880  0.86310037    -0.29700
C435        C  0.91252517  0.35498745  0.64943220    -0.04000
C436        C  0.88677489  0.34303415  0.61002802    -0.40500
H437        H  0.95081568  0.35864500  0.73801690     0.12300
H438        H  0.91673628  0.39270090  0.80978144     0.11900
H439        H  0.79592582  0.44524650  0.72680938     0.11300
H440        H  0.83028315  0.41165132  0.65513803     0.11600
H441        H  0.79097422  0.45229415  0.81113759     0.14300
H442        H  0.87862255  0.42189472  0.87159523     0.13100
H443        H  0.94917966  0.34178361  0.65324813     0.10800
H444        H  0.84961879  0.35416012  0.60550301     0.12800
C445        C  0.90667398  0.36964934  0.29593512     0.18900
C446        C  0.92341475  0.36100203  0.24954450    -0.19200
C447        C  0.90174707  0.38255367  0.20974116    -0.11500
C448        C  0.86247534  0.41341204  0.21539975     0.21100
C449        C  0.84706348  0.42360760  0.26199312    -0.20900
C450        C  0.86890379  0.40215779  0.30187617    -0.11700
C451        C  0.83346636  0.43175020  0.17417453    -0.15900
C452        C  0.84671104  0.42989102  0.12786375    -0.29700
C453        C  0.92584431  0.33976252  0.33572517    -0.04000
C454        C  0.92027202  0.34804172  0.38284747    -0.40500
H455        H  0.95233711  0.33596531  0.24386825     0.12300
H456        H  0.91454685  0.37296379  0.17476498     0.11900
H457        H  0.81662309  0.44683570  0.26750853     0.11300
H458        H  0.85437087  0.40928120  0.33682749     0.11600
H459        H  0.79832859  0.44644317  0.18251286     0.14300
H460        H  0.88230544  0.41775969  0.11796712     0.13100
H461        H  0.94506489  0.30797855  0.32521481     0.10800
H462        H  0.90408374  0.38064308  0.39526629     0.12800
C463        C  0.41388603  0.79114692  0.86622084     0.18900
C464        C  0.42647625  0.74391875  0.85710307    -0.19200
C465        C  0.40239561  0.70645440  0.87980458    -0.11500
C466        C  0.36499019  0.71556738  0.91222141     0.21100
C467        C  0.35343696  0.76280808  0.92244291    -0.20900
C468        C  0.37756700  0.80026015  0.89983104    -0.11700
C469        C  0.33385676  0.67724037  0.93195267    -0.15900
C470        C  0.34663907  0.63132477  0.93382761    -0.29700
C471        C  0.43543019  0.82926441  0.83620566    -0.04000
C472        C  0.43428856  0.87559810  0.84736792    -0.40500
H473        H  0.45394506  0.73591524  0.83103752     0.12300
H474        H  0.41166158  0.67064125  0.86986926     0.11900
H475        H  0.32436307  0.77078411  0.94673828     0.11300
H476        H  0.36570707  0.83596818  0.90706279     0.11600
H477        H  0.29827855  0.68723271  0.94447863     0.14300
H478        H  0.38281360  0.62052345  0.92427766     0.13100
H479        H  0.45145984  0.81875255  0.80257723     0.10800
H480        H  0.42095152  0.88706614  0.88171110     0.12800
C481        C  0.36717498  0.29160112  0.91384541     0.18900
C482        C  0.35921911  0.24423267  0.92732362    -0.19200
C483        C  0.38172300  0.20737674  0.90307082    -0.11500
C484        C  0.41279798  0.21729548  0.86460732     0.21100
C485        C  0.42197425  0.26478834  0.85223783    -0.20900
C486        C  0.39946694  0.30162461  0.87649993    -0.11700
C487        C  0.43223702  0.17956592  0.83347975    -0.15900
C488        C  0.43290458  0.13335164  0.84547472    -0.29700
C489        C  0.33684505  0.32887996  0.93529285    -0.04000
C490        C  0.34852594  0.37521979  0.93474405    -0.40500
H491        H  0.33409749  0.23562188  0.95561692     0.12300
H492        H  0.37252337  0.17141980  0.91324563     0.11900
H493        H  0.44532328  0.27340850  0.82250362     0.11300
H494        H  0.40556352  0.33756681  0.86409359     0.11600
H495        H  0.44511169  0.19023326  0.79841720     0.14300
H496        H  0.42256691  0.12167015  0.88090693     0.13100
H497        H  0.30257448  0.31780037  0.95061997     0.10800
H498        H  0.38377680  0.38700471  0.92262805     0.12800
C499        C  0.36839339  0.71331949  0.07757860     0.18900
C500        C  0.35826015  0.76003110  0.06342576    -0.19200
C501        C  0.38250839  0.79817455  0.08457182    -0.11500
C502        C  0.41739260  0.79003356  0.12047176     0.21100
C503        C  0.42929632  0.74327275  0.13270980    -0.20900
C504        C  0.40505840  0.70522835  0.11167434    -0.11700
C505        C  0.43692316  0.82845300  0.15081631    -0.15900
C506        C  0.43399745  0.87478088  0.14007478    -0.29700
C507        C  0.33627109  0.67474848  0.06053293    -0.04000
C508        C  0.34738119  0.62857539  0.06409729    -0.40500
H509        H  0.32988165  0.76713760  0.03756464     0.12300
H510        H  0.37151096  0.83364755  0.07468769     0.11900
H511        H  0.45570631  0.73614631  0.16055389     0.11300
H512        H  0.41333457  0.66998444  0.12460014     0.11600
H513        H  0.45220642  0.81803091  0.18517947     0.14300
H514        H  0.42195720  0.88680109  0.10514314     0.13100
H515        H  0.30126433  0.68478649  0.04592173     0.10800
H516        H  0.38305310  0.61733765  0.07547759     0.12800
C517        C  0.40908710  0.21293782  0.13509979     0.18900
C518        C  0.42203251  0.26007237  0.14468455    -0.19200
C519        C  0.39821230  0.29736526  0.12183374    -0.11500
C520        C  0.36070634  0.28809937  0.08885459     0.21100
C521        C  0.34861625  0.24085319  0.07835190    -0.20900
C522        C  0.37251254  0.20352958  0.10120194    -0.11700
C523        C  0.33011167  0.32634210  0.06877263    -0.15900
C524        C  0.34322540  0.37230906  0.06822954    -0.29700
C525        C  0.43072651  0.17495415  0.16471162    -0.04000
C526        C  0.43323903  0.12965540  0.15059616    -0.40500
H527        H  0.44969785  0.26809596  0.17107460     0.12300
H528        H  0.40784473  0.33313653  0.13210901     0.11900
H529        H  0.31949636  0.23280859  0.05354620     0.11300
H530        H  0.36056976  0.16763434  0.09390695     0.11600
H531        H  0.29461318  0.31631320  0.05515976     0.14300
H532        H  0.37933720  0.38327786  0.07883029     0.13100
H533        H  0.44429867  0.18460656  0.19991514     0.10800
H534        H  0.42270688  0.11966345  0.11459077     0.12800
C535        C  0.08885879  0.63767975  0.71130375     0.18900
C536        C  0.07897543  0.64807686  0.75909779    -0.19200
C537        C  0.10332266  0.62463344  0.79594768    -0.11500
C538        C  0.13824740  0.59014602  0.78565920     0.21100
C539        C  0.14746988  0.57900559  0.73786363    -0.20900
C540        C  0.12301507  0.60245274  0.70093609    -0.11700
C541        C  0.16917309  0.56915418  0.82350793    -0.15900
C542        C  0.15626561  0.56724030  0.86959989    -0.29700
C543        C  0.06681110  0.66787122  0.67372651    -0.04000
C544        C  0.06350570  0.65546534  0.62756862    -0.40500
H545        H  0.05336418  0.67552897  0.76795884     0.12300
H546        H  0.09625668  0.63546770  0.83220112     0.11900
H547        H  0.17468515  0.55306882  0.72906557     0.11300
H548        H  0.13273316  0.59438856  0.66455699     0.11600
H549        H  0.20451987  0.55627618  0.81322390     0.14300
H550        H  0.12011963  0.57700658  0.88034703     0.13100
H551        H  0.05388262  0.70254520  0.68450084     0.10800
H552        H  0.07367337  0.62023532  0.61605086     0.12800
C553        C  0.09289247  0.64517999  0.28612729     0.18900
C554        C  0.08314318  0.65657942  0.23819375    -0.19200
C555        C  0.10475499  0.63129956  0.20126946    -0.11500
C556        C  0.13690643  0.59405181  0.21163299     0.21100
C557        C  0.14571274  0.58190627  0.25954573    -0.20900
C558        C  0.12399992  0.60706521  0.29644120    -0.11700
C559        C  0.16617278  0.57102166  0.17411100    -0.15900
C560        C  0.15432855  0.57086145  0.12742730    -0.29700
C561        C  0.07367790  0.67641438  0.32406930    -0.04000
C562        C  0.06948984  0.66296389  0.37000247    -0.40500
H563        H  0.05972711  0.68604773  0.22927682     0.12300
H564        H  0.09795977  0.64269292  0.16491841     0.11900
H565        H  0.17078809  0.55380481  0.26851978     0.11300
H566        H  0.13362910  0.59787207  0.33279967     0.11600
H567        H  0.19993366  0.55476573  0.18538181     0.14300
H568        H  0.11958187  0.58409086  0.11535796     0.13100
H569        H  0.06309252  0.71215287  0.31377872     0.10800
H570        H  0.07709463  0.62669902  0.38071593     0.12800
C571        C  0.14153497  0.41226769  0.78325799     0.18900
C572        C  0.15075122  0.42428795  0.73553071    -0.19200
C573        C  0.12604354  0.40134225  0.69845111    -0.11500
C574        C  0.09160512  0.36570594  0.70859177     0.21100
C575        C  0.08168728  0.35455357  0.75635657    -0.20900
C576        C  0.10633890  0.37743817  0.79333137    -0.11700
C577        C  0.06900796  0.33594658  0.67092786    -0.15900
C578        C  0.06751360  0.34794641  0.62447844    -0.29700
C579        C  0.17241835  0.43298500  0.82133896    -0.04000
C580        C  0.15884450  0.43481513  0.86722019    -0.40500
H581        H  0.17811460  0.45057492  0.72689327     0.12300
H582        H  0.13580309  0.41020975  0.66217574     0.11900
H583        H  0.05580429  0.32688569  0.76511657     0.11300
H584        H  0.09923132  0.36597163  0.82952567     0.11600
H585        H  0.05406700  0.30183704  0.68191656     0.14300
H586        H  0.07987889  0.38258207  0.61249720     0.13100
H587        H  0.20801006  0.44605491  0.81140876     0.10800
H588        H  0.12243067  0.42486595  0.87746467     0.12800
C589        C  0.07866388  0.36677741  0.28129162     0.18900
C590        C  0.07142480  0.35331578  0.23361371    -0.19200
C591        C  0.09582460  0.37670544  0.19684953    -0.11500
C592        C  0.12795406  0.41425245  0.20720554     0.21100
C593        C  0.13378322  0.42891755  0.25458327    -0.20900
C594        C  0.10945566  0.40556278  0.29132662    -0.11700
C595        C  0.16005260  0.43506147  0.17059556    -0.15900
C596        C  0.14995105  0.43418365  0.12371250    -0.29700
C597        C  0.05845054  0.33598659  0.31941159    -0.04000
C598        C  0.05799984  0.34802826  0.36572813    -0.40500
H599        H  0.04837348  0.32329159  0.22493690     0.12300
H600        H  0.09135226  0.36349564  0.16088024     0.11900
H601        H  0.15869396  0.45744333  0.26340550     0.11300
H602        H  0.11725721  0.41666480  0.32743300     0.11600
H603        H  0.19399322  0.45065624  0.18273783     0.14300
H604        H  0.11505546  0.42176330  0.11082455     0.13100
H605        H  0.04611963  0.30071747  0.30919388     0.10800
H606        H  0.06777251  0.38355864  0.37703934     0.12800
loop_ 
_geom_bond_atom_site_label_1 
_geom_bond_atom_site_label_2 
_geom_bond_distance 
_geom_bond_site_symmetry_2 
_ccdc_geom_bond_type 
O1            C9   1.258       .  A
O1          Co21   1.954   1_554  S
O2           C10   1.259       .  A
O2          Co22   1.955       .  S
O3           C11   1.271       .  A
O3          Co23   2.025       .  S
O4           C12   1.271       .  A
O4          Co24   2.024       .  S
O5           C11   1.260       .  A
O5          Co22   1.965   1_554  S
O6           C12   1.258       .  A
O6          Co21   1.956       .  S
O7           C10   1.273       .  A
O7          Co24   2.026       .  S
O8            C9   1.273       .  A
O8          Co23   2.025       .  S
C9          C596   1.468       .  S
C10         C542   1.468       .  S
C11         C560   1.476       .  S
C12         C580   1.469       .  S
O13          C26   1.273       .  A
O13         Co21   2.027       .  S
O14          C27   1.272       .  A
O14         Co22   2.021   1_554  S
O15          C28   1.257       .  A
O15         Co23   1.956       .  S
O16          C29   1.259       .  A
O16         Co24   1.959       .  S
O17          C29   1.272       .  A
O17         Co22   2.028       .  S
O18          C28   1.270       .  A
O18         Co21   2.021   1_554  S
O19          C26   1.259       .  A
O19         Co24   1.958       .  S
O20          C27   1.258       .  A
O20         Co23   1.952       .  S
Co21         O25   2.099       .  S
Co22         O25   2.100       .  S
Co23         O25   2.101   1_554  S
Co24         O25   2.104       .  S
C26         C490   1.471       .  S
C27         C508   1.465       .  S
C28         C524   1.468       .  S
C29         C470   1.473       .  S
O30          C38   1.274       .  A
O30         Co50   2.027       .  S
O31          C39   1.275       .  A
O31         Co51   2.030       .  S
O32          C40   1.265       .  A
O32         Co52   1.980       .  S
O33          C41   1.264       .  A
O33         Co53   1.979   1_554  S
O34          C40   1.270       .  A
O34         Co51   2.014       .  S
O35          C41   1.271       .  A
O35         Co50   2.022       .  S
O36          C39   1.266       .  A
O36         Co53   1.972       .  S
O37          C38   1.266       .  A
O37         Co52   1.976   1_554  S
C38         C452   1.483       .  S
C39         C400   1.482       .  S
C40         C434   1.482       .  S
C41         C416   1.484       .  S
O42          C55   1.261       .  A
O42         Co50   1.959       .  S
O43          C56   1.270       .  A
O43         Co51   1.983       .  S
O44          C57   1.272       .  A
O44         Co52   2.026   1_554  S
O45          C58   1.271       .  A
O45         Co53   2.021       .  S
O46          C58   1.267       .  A
O46         Co51   1.981       .  S
O47          C57   1.259       .  A
O47         Co50   1.961       .  S
O48          C55   1.275       .  A
O48         Co53   2.033   1_554  S
O49          C56   1.275       .  A
O49         Co52   2.030       .  S
Co50         O54   2.101   1_554  S
Co51         O54   2.107       .  S
Co52         O54   2.111       .  S
Co53         O54   2.111       .  S
C55         C328   1.475       .  S
C56         C380   1.489       .  S
C57         C344   1.474       .  S
C58         C362   1.485       .  S
O59          C67   1.258       .  A
O59         Co79   1.954       .  S
O60          C68   1.263       .  A
O60         Co80   1.966       .  S
O61          C69   1.268       .  A
O61         Co81   2.016   1_565  S
O62          C70   1.271       .  A
O62         Co82   2.025   1_545  S
O63          C69   1.265       .  A
O63         Co80   1.981       .  S
O64          C70   1.257       .  A
O64         Co79   1.956       .  S
O65          C68   1.274       .  A
O65         Co82   2.026       .  S
O66          C67   1.274       .  A
O66         Co81   2.034       .  S
C67         C308   1.472       .  S
C68         C254   1.477       .  S
C69         C272   1.477       .  S
C70         C292   1.470       .  S
O71          C84   1.273       .  A
O71         Co79   2.029       .  S
O72          C85   1.273       .  A
O72         Co80   2.019       .  S
O73          C86   1.256       .  A
O73         Co81   1.953       .  S
O74          C87   1.260       .  A
O74         Co82   1.962       .  S
O75          C87   1.273       .  A
O75         Co80   2.032       .  S
O76          C86   1.271       .  A
O76         Co79   2.025       .  S
O77          C84   1.260       .  A
O77         Co82   1.960   1_545  S
O78          C85   1.258       .  A
O78         Co81   1.955   1_565  S
Co79         O83   2.100   1_545  S
Co80         O83   2.106       .  S
Co81         O83   2.102   1_545  S
Co82         O83   2.103       .  S
C84         C346   1.473       .  S
C85         C506   1.467       .  S
C86         C526   1.468       .  S
C87         C326   1.476       .  S
O88          C96   1.277       .  A
O88        Co108   2.021       .  S
O89          C97   1.299       .  A
O89        Co109   2.127       .  S
O90          C98   1.268       .  A
O90        Co110   1.996       .  S
O91          C99   1.273       .  A
O91        Co111   1.986       .  S
O92          C98   1.267       .  A
O92        Co109   1.991   1_545  S
O93          C99   1.276       .  A
O93        Co108   2.011   1_565  S
O94          C97   1.271       .  A
O94        Co111   1.893       .  S
O95          C96   1.269       .  A
O95        Co110   1.977       .  S
C96         C238   1.481       .  S
C97         C184   1.481       .  S
C98         C218   1.481       .  S
C99         C200   1.484       .  S
O100        C113   1.263       .  A
O100       Co108   1.980   1_565  S
O101        C114   1.276       .  A
O101       Co109   1.992   1_545  S
O102        C115   1.275       .  A
O102       Co110   2.019       .  S
O103        C116   1.297       .  A
O103       Co111   2.125       .  S
O104        C116   1.269       .  A
O104       Co109   1.899       .  S
O105        C115   1.262       .  A
O105       Co108   1.961       .  S
O106        C113   1.269       .  A
O106       Co111   2.002       .  S
O107        C114   1.278       .  A
O107       Co110   2.016       .  S
Co108       O112   2.019       .  S
Co109       O112   1.979   1_565  S
Co110       O112   2.029       .  S
Co111       O112   1.989   1_565  S
C113        C472   1.473       .  S
C114        C382   1.489       .  S
C115        C488   1.471       .  S
C116        C364   1.485       .  S
O117        C125   1.263       .  A
O117       Co137   1.960       .  S
O118        C126   1.271       .  A
O118       Co138   1.894       .  S
O119        C127   1.277       .  A
O119       Co139   2.014       .  S
O120        C128   1.268       .  A
O120       Co140   2.000   1_455  S
O121        C127   1.272       .  A
O121       Co138   1.984       .  S
O122        C128   1.261       .  A
O122       Co137   1.977       .  S
O123        C126   1.297       .  A
O123       Co140   2.117       .  S
O124        C125   1.276       .  A
O124       Co139   2.017   1_455  S
C125        C598   1.468       .  S
C126        C436   1.479       .  S
C127        C454   1.484       .  S
C128        C578   1.471       .  S
O129        C142   1.278       .  A
O129       Co137   2.017       .  S
O130        C143   1.270       .  A
O130       Co138   2.008       .  S
O131        C144   1.263       .  A
O131       Co139   1.964   1_455  S
O132        C145   1.270       .  A
O132       Co140   1.898       .  S
O133        C145   1.295       .  A
O133       Co138   2.112       .  S
O134        C144   1.274       .  A
O134       Co137   2.017       .  S
O135        C142   1.272       .  A
O135       Co140   1.979   1_455  S
O136        C143   1.261       .  A
O136       Co139   1.973       .  S
Co137       O141   2.018       .  S
Co138       O141   1.987   1_655  S
Co139       O141   2.016   1_655  S
Co140       O141   1.983   1_655  S
C142        C236   1.481       .  S
C143        C290   1.470       .  S
C144        C310   1.471       .  S
C145        C220   1.479       .  S
O146        C154   1.276       .  A
O146       Co166   2.036       .  S
O147        C155   1.275       .  A
O147       Co167   2.024       .  S
O148        C156   1.258       .  A
O148       Co168   1.962       .  S
O149        C157   1.267       .  A
O149       Co169   1.986       .  S
O150        C156   1.270       .  A
O150       Co167   2.019   1_455  S
O151        C157   1.267       .  A
O151       Co166   2.013   1_655  S
O152        C155   1.269       .  A
O152       Co169   1.978       .  S
O153        C154   1.261       .  A
O153       Co168   1.957       .  S
C154        C562   1.475       .  S
C155        C398   1.482       .  S
C156        C544   1.471       .  S
C157        C418   1.479       .  S
O158        C171   1.265       .  A
O158       Co166   1.966   1_655  S
O159        C172   1.266       .  A
O159       Co167   1.969   1_455  S
O160        C173   1.270       .  A
O160       Co168   2.022       .  S
O161        C174   1.270       .  A
O161       Co169   2.018       .  S
O162        C174   1.264       .  A
O162       Co167   1.976       .  S
O163        C173   1.262       .  A
O163       Co166   1.973       .  S
O164        C171   1.276       .  A
O164       Co169   2.028       .  S
O165        C172   1.275       .  A
O165       Co168   2.032       .  S
Co166       O170   2.104   1_455  S
Co167       O170   2.104       .  S
Co168       O170   2.101   1_455  S
Co169       O170   2.109       .  S
C171        C256   1.476       .  S
C172        C202   1.480       .  S
C173        C274   1.481       .  S
C174        C182   1.480       .  S
C175        C183   1.489       .  S
C175        C176   1.406       .  A
C175        C180   1.405       .  A
C176        C177   1.400       .  A
C176        H185   1.081       .  S
C177        C178   1.407       .  A
C177        H186   1.083       .  S
C178        C181   1.490       .  S
C178        C179   1.407       .  A
C179        C180   1.398       .  A
C179        H187   1.080       .  S
C180        H188   1.084       .  S
C181        H189   1.087       .  S
C181        C182   1.351       .  D
C182        H190   1.083       .  S
C183        H191   1.087       .  S
C183        C184   1.350       .  D
C184        H192   1.084       .  S
C193        C201   1.490       .  S
C193        C194   1.406       .  A
C193        C198   1.406       .  A
C194        C195   1.402       .  A
C194        H203   1.082       .  S
C195        C196   1.407       .  A
C195        H204   1.081       .  S
C196        C199   1.491       .  S
C196        C197   1.406       .  A
C197        C198   1.398       .  A
C197        H205   1.084       .  S
C198        H206   1.081       .  S
C199        H207   1.087       .  S
C199        C200   1.352       .  D
C200        H208   1.084       .  S
C201        H209   1.087       .  S
C201        C202   1.349       .  D
C202        H210   1.084       .  S
C211        C219   1.490       .  S
C211        C212   1.407       .  A
C211        C216   1.406       .  A
C212        C213   1.400       .  A
C212        H221   1.084       .  S
C213        C214   1.406       .  A
C213        H222   1.081       .  S
C214        C217   1.488       .  S
C214        C215   1.405       .  A
C215        C216   1.398       .  A
C215        H223   1.084       .  S
C216        H224   1.079       .  S
C217        H225   1.087       .  S
C217        C218   1.351       .  D
C218        H226   1.084       .  S
C219        H227   1.087       .  S
C219        C220   1.352       .  D
C220        H228   1.083       .  S
C229        C237   1.492       .  S
C229        C230   1.406       .  A
C229        C234   1.408       .  A
C230        C231   1.401       .  A
C230        H239   1.083       .  S
C231        C232   1.407       .  A
C231        H240   1.081       .  S
C232        C235   1.490       .  S
C232        C233   1.405       .  A
C233        C234   1.399       .  A
C233        H241   1.084       .  S
C234        H242   1.080       .  S
C235        H243   1.087       .  S
C235        C236   1.350       .  D
C236        H244   1.084       .  S
C237        H245   1.087       .  S
C237        C238   1.349       .  D
C238        H246   1.084       .  S
C247        C255   1.486       .  S
C247        C248   1.403       .  A
C247        C252   1.407       .  A
C248        C249   1.398       .  A
C248        H257   1.084       .  S
C249        C250   1.408       .  A
C249        H258   1.080       .  S
C250        C253   1.488       .  S
C250        C251   1.405       .  A
C251        C252   1.398       .  A
C251        H259   1.084       .  S
C252        H260   1.081       .  S
C253        H261   1.087       .  S
C253        C254   1.347       .  D
C254        H262   1.083       .  S
C255        H263   1.088       .  S
C255        C256   1.346       .  D
C256        H264   1.084       .  S
C265        C273   1.491       .  S
C265        C266   1.409       .  A
C265        C270   1.405       .  A
C266        C267   1.401       .  A
C266        H275   1.080       .  S
C267        C268   1.408       .  A
C267        H276   1.083       .  S
C268        C271   1.488       .  S
C268        C269   1.401       .  A
C269        C270   1.398       .  A
C269        H277   1.083       .  S
C270        H278   1.083       .  S
C271        H279   1.087       .  S
C271        C272   1.344       .  D
C272        H280   1.086       .  S
C273        H281   1.087       .  S
C273        C274   1.349       .  D
C274        H282   1.084       .  S
C283        C291   1.483       .  S
C283        C284   1.401       .  A
C283        C288   1.409       .  A
C284        C285   1.396       .  A
C284        H293   1.083       .  S
C285        C286   1.409       .  A
C285        H294   1.081       .  S
C286        C289   1.484       .  S
C286        C287   1.401       .  A
C287        C288   1.396       .  A
C287        H295   1.083       .  S
C288        H296   1.081       .  S
C289        H297   1.087       .  S
C289        C290   1.342       .  D
C290        H298   1.085       .  S
C291        H299   1.087       .  S
C291        C292   1.342       .  D
C292        H300   1.084       .  S
C301        C309   1.482       .  S
C301        C302   1.402       .  A
C301        C306   1.407       .  A
C302        C303   1.398       .  A
C302        H311   1.084       .  S
C303        C304   1.408       .  A
C303        H312   1.081       .  S
C304        C307   1.482       .  S
C304        C305   1.401       .  A
C305        C306   1.395       .  A
C305        H313   1.084       .  S
C306        H314   1.081       .  S
C307        H315   1.087       .  S
C307        C308   1.342       .  D
C308        H316   1.085       .  S
C309        H317   1.087       .  S
C309        C310   1.343       .  D
C310        H318   1.085       .  S
C319        C327   1.488       .  S
C319        C320   1.403       .  A
C319        C324   1.408       .  A
C320        C321   1.399       .  A
C320        H329   1.084       .  S
C321        C322   1.408       .  A
C321        H330   1.081       .  S
C322        C325   1.487       .  S
C322        C323   1.403       .  A
C323        C324   1.398       .  A
C323        H331   1.083       .  S
C324        H332   1.081       .  S
C325        H333   1.087       .  S
C325        C326   1.345       .  D
C326        H334   1.085       .  S
C327        H335   1.087       .  S
C327        C328   1.345       .  D
C328        H336   1.084       .  S
C337        C345   1.486       .  S
C337        C338   1.404       .  A
C337        C342   1.408       .  A
C338        C339   1.399       .  A
C338        H347   1.084       .  S
C339        C340   1.408       .  A
C339        H348   1.081       .  S
C340        C343   1.484       .  S
C340        C341   1.402       .  A
C341        C342   1.396       .  A
C341        H349   1.084       .  S
C342        H350   1.081       .  S
C343        H351   1.087       .  S
C343        C344   1.344       .  D
C344        H352   1.085       .  S
C345        H353   1.087       .  S
C345        C346   1.345       .  D
C346        H354   1.084       .  S
C355        C363   1.492       .  S
C355        C356   1.406       .  A
C355        C360   1.406       .  A
C356        C357   1.400       .  A
C356        H365   1.084       .  S
C357        C358   1.407       .  A
C357        H366   1.081       .  S
C358        C361   1.494       .  S
C358        C359   1.408       .  A
C359        C360   1.403       .  A
C359        H367   1.083       .  S
C360        H368   1.081       .  S
C361        H369   1.087       .  S
C361        C362   1.353       .  D
C362        H370   1.084       .  S
C363        H371   1.087       .  S
C363        C364   1.352       .  D
C364        H372   1.084       .  S
C373        C381   1.495       .  S
C373        C374   1.406       .  A
C373        C378   1.407       .  A
C374        C375   1.404       .  A
C374        H383   1.081       .  S
C375        C376   1.409       .  A
C375        H384   1.083       .  S
C376        C379   1.499       .  S
C376        C377   1.407       .  A
C377        C378   1.402       .  A
C377        H385   1.080       .  S
C378        H386   1.083       .  S
C379        H387   1.087       .  S
C379        C380   1.355       .  D
C380        H388   1.083       .  S
C381        H389   1.087       .  S
C381        C382   1.355       .  D
C382        H390   1.084       .  S
C391        C399   1.490       .  S
C391        C392   1.405       .  A
C391        C396   1.407       .  A
C392        C393   1.400       .  A
C392        H401   1.084       .  S
C393        C394   1.407       .  A
C393        H402   1.081       .  S
C394        C397   1.491       .  S
C394        C395   1.406       .  A
C395        C396   1.400       .  A
C395        H403   1.084       .  S
C396        H404   1.081       .  S
C397        H405   1.087       .  S
C397        C398   1.351       .  D
C398        H406   1.084       .  S
C399        H407   1.087       .  S
C399        C400   1.349       .  D
C400        H408   1.084       .  S
C409        C417   1.493       .  S
C409        C410   1.402       .  A
C409        C414   1.411       .  A
C410        C411   1.399       .  A
C410        H419   1.083       .  S
C411        C412   1.406       .  A
C411        H420   1.083       .  S
C412        C415   1.492       .  S
C412        C413   1.408       .  A
C413        C414   1.403       .  A
C413        H421   1.081       .  S
C414        H422   1.082       .  S
C415        H423   1.087       .  S
C415        C416   1.351       .  D
C416        H424   1.084       .  S
C417        H425   1.087       .  S
C417        C418   1.344       .  D
C418        H426   1.085       .  S
C427        C435   1.489       .  S
C427        C428   1.406       .  A
C427        C432   1.405       .  A
C428        C429   1.401       .  A
C428        H437   1.084       .  S
C429        C430   1.407       .  A
C429        H438   1.080       .  S
C430        C433   1.490       .  S
C430        C431   1.406       .  A
C431        C432   1.398       .  A
C431        H439   1.084       .  S
C432        H440   1.081       .  S
C433        H441   1.087       .  S
C433        C434   1.351       .  D
C434        H442   1.083       .  S
C435        H443   1.087       .  S
C435        C436   1.352       .  D
C436        H444   1.084       .  S
C445        C453   1.490       .  S
C445        C446   1.406       .  A
C445        C450   1.406       .  A
C446        C447   1.399       .  A
C446        H455   1.084       .  S
C447        C448   1.407       .  A
C447        H456   1.080       .  S
C448        C451   1.493       .  S
C448        C449   1.407       .  A
C449        C450   1.402       .  A
C449        H457   1.083       .  S
C450        H458   1.081       .  S
C451        H459   1.087       .  S
C451        C452   1.352       .  D
C452        H460   1.084       .  S
C453        H461   1.087       .  S
C453        C454   1.351       .  D
C454        H462   1.084       .  S
C463        C471   1.485       .  S
C463        C464   1.403       .  A
C463        C468   1.408       .  A
C464        C465   1.397       .  A
C464        H473   1.084       .  S
C465        C466   1.408       .  A
C465        H474   1.081       .  S
C466        C469   1.484       .  S
C466        C467   1.402       .  A
C467        C468   1.396       .  A
C467        H475   1.083       .  S
C468        H476   1.081       .  S
C469        H477   1.087       .  S
C469        C470   1.344       .  D
C470        H478   1.084       .  S
C471        H479   1.087       .  S
C471        C472   1.344       .  D
C472        H480   1.084       .  S
C481        C489   1.481       .  S
C481        C482   1.401       .  A
C481        C486   1.407       .  A
C482        C483   1.396       .  A
C482        H491   1.084       .  S
C483        C484   1.409       .  A
C483        H492   1.080       .  S
C484        C487   1.484       .  S
C484        C485   1.402       .  A
C485        C486   1.396       .  A
C485        H493   1.084       .  S
C486        H494   1.081       .  S
C487        H495   1.087       .  S
C487        C488   1.343       .  D
C488        H496   1.084       .  S
C489        H497   1.087       .  S
C489        C490   1.343       .  D
C490        H498   1.085       .  S
C499        C507   1.478       .  S
C499        C500   1.402       .  A
C499        C504   1.407       .  A
C500        C501   1.395       .  A
C500        H509   1.083       .  S
C501        C502   1.408       .  A
C501        H510   1.080       .  S
C502        C505   1.476       .  S
C502        C503   1.400       .  A
C503        C504   1.392       .  A
C503        H511   1.084       .  S
C504        H512   1.080       .  S
C505        H513   1.088       .  S
C505        C506   1.340       .  D
C506        H514   1.084       .  S
C507        H515   1.088       .  S
C507        C508   1.341       .  D
C508        H516   1.084       .  S
C517        C525   1.477       .  S
C517        C518   1.400       .  A
C517        C522   1.407       .  A
C518        C519   1.394       .  A
C518        H527   1.084       .  S
C519        C520   1.408       .  A
C519        H528   1.080       .  S
C520        C523   1.481       .  S
C520        C521   1.402       .  A
C521        C522   1.396       .  A
C521        H529   1.084       .  S
C522        H530   1.082       .  S
C523        H531   1.087       .  S
C523        C524   1.342       .  D
C524        H532   1.084       .  S
C525        H533   1.087       .  S
C525        C526   1.340       .  D
C526        H534   1.085       .  S
C535        C543   1.480       .  S
C535        C536   1.401       .  A
C535        C540   1.408       .  A
C536        C537   1.394       .  A
C536        H545   1.084       .  S
C537        C538   1.407       .  A
C537        H546   1.081       .  S
C538        C541   1.481       .  S
C538        C539   1.402       .  A
C539        C540   1.397       .  A
C539        H547   1.083       .  S
C540        H548   1.081       .  S
C541        H549   1.087       .  S
C541        C542   1.343       .  D
C542        H550   1.085       .  S
C543        H551   1.087       .  S
C543        C544   1.343       .  D
C544        H552   1.085       .  S
C553        C561   1.487       .  S
C553        C554   1.403       .  A
C553        C558   1.408       .  A
C554        C555   1.399       .  A
C554        H563   1.083       .  S
C555        C556   1.408       .  A
C555        H564   1.081       .  S
C556        C559   1.486       .  S
C556        C557   1.403       .  A
C557        C558   1.398       .  A
C557        H565   1.084       .  S
C558        H566   1.081       .  S
C559        H567   1.087       .  S
C559        C560   1.345       .  D
C560        H568   1.085       .  S
C561        H569   1.087       .  S
C561        C562   1.345       .  D
C562        H570   1.085       .  S
C571        C579   1.481       .  S
C571        C572   1.402       .  A
C571        C576   1.407       .  A
C572        C573   1.398       .  A
C572        H581   1.084       .  S
C573        C574   1.409       .  A
C573        H582   1.081       .  S
C574        C577   1.483       .  S
C574        C575   1.401       .  A
C575        C576   1.394       .  A
C575        H583   1.084       .  S
C576        H584   1.081       .  S
C577        H585   1.087       .  S
C577        C578   1.343       .  D
C578        H586   1.084       .  S
C579        H587   1.087       .  S
C579        C580   1.343       .  D
C580        H588   1.085       .  S
C589        C597   1.483       .  S
C589        C590   1.402       .  A
C589        C594   1.409       .  A
C590        C591   1.396       .  A
C590        H599   1.084       .  S
C591        C592   1.407       .  A
C591        H600   1.081       .  S
C592        C595   1.478       .  S
C592        C593   1.399       .  A
C593        C594   1.394       .  A
C593        H601   1.084       .  S
C594        H602   1.080       .  S
C595        H603   1.087       .  S
C595        C596   1.340       .  D
C596        H604   1.085       .  S
C597        H605   1.087       .  S
C597        C598   1.342       .  D
C598        H606   1.083       .  S
