geometry optimzed in LAMMPS
_audit_creation_date              2020-11-30 
_audit_creation_method            'lammps2cif' 
_symmetry_space_group_name_H-M    'P1' 
_symmetry_Int_Tables_number       1 
_symmetry_cell_setting            triclinic 
loop_ 
_symmetry_equiv_pos_as_xyz 
  x,y,z 
_cell_length_a                    35.46865877 
_cell_length_b                    35.46261789402889 
_cell_length_c                    41.00820533365335 
_cell_angle_alpha                 89.98709699634271 
_cell_angle_beta                  90.29527523781948 
_cell_angle_gamma                 89.78066875047209 
loop_ 
_atom_site_label 
_atom_site_type_symbol 
_atom_site_fract_x 
_atom_site_fract_y 
_atom_site_fract_z 
_atom_site_charge 
In1        In  0.24647835  0.39427081  0.39653735     1.36900
C2          C  0.18494546  0.35541710  0.38193440     0.79800
O3          O  0.23808830  0.40622167  0.44986577    -0.58700
O4          O  0.21374331  0.44410811  0.41575044    -0.49600
C5          C  0.30331093  0.34714603  0.40776238     0.72400
O6          O  0.28082424  0.34286307  0.38414923    -0.44400
C7          C  0.28047055  0.43478385  0.35064206     0.77100
O8          O  0.20949002  0.34332622  0.40164909    -0.56300
O9          O  0.28886494  0.43742643  0.38041388    -0.46400
O10         O  0.19183852  0.38706266  0.36950338    -0.52700
C11         C  0.21820613  0.43518625  0.44523600     0.87300
O12         O  0.29627933  0.37480967  0.42604415    -0.54600
O13         O  0.25399168  0.41237993  0.34438726    -0.57900
C14         C  0.46392669  0.24835134  0.41401921     0.04500
C15         C  0.46450820  0.20887108  0.41063614     0.04400
C16         C  0.49883415  0.18972273  0.40747810    -0.16100
C17         C  0.53277394  0.20961188  0.40717413     0.04500
C18         C  0.53232467  0.24913705  0.41051282     0.04400
C19         C  0.49793230  0.26824243  0.41410360    -0.16100
H20         H  0.49758582  0.29884964  0.41624728     0.06500
H21         H  0.49905587  0.15926342  0.40432131     0.06500
C22         C  0.03123469  0.22025242  0.33501617     0.04500
C23         C  0.02921529  0.25798252  0.34559054     0.04400
C24         C  0.99404285  0.27517273  0.34991088    -0.16100
C25         C  0.96082127  0.25496591  0.34441682     0.04500
C26         C  0.96279373  0.21710741  0.33418868     0.04400
C27         C  0.99799024  0.20012587  0.32923769    -0.16100
H28         H  0.99952801  0.17070355  0.32175292     0.06500
H29         H  0.99251144  0.30430124  0.35821388     0.06500
In30       In  0.24665639  0.07568288  0.36343622     1.36900
C31         C  0.30711322  0.11390510  0.38023445     0.79800
O32         O  0.23419079  0.06916430  0.41657645    -0.58700
O33         O  0.21411522  0.02703540  0.38415914    -0.49600
C34         C  0.18873079  0.11927766  0.34734350     0.72400
O35         O  0.21602430  0.13104782  0.36420293    -0.44400
C36         C  0.27761848  0.03697945  0.31499479     0.77100
O37         O  0.28429730  0.12580799  0.35890664    -0.56300
O38         O  0.28362596  0.02912210  0.34447859    -0.46400
O39         O  0.29920729  0.08256806  0.39280064    -0.52700
C40         C  0.21639190  0.03884866  0.41308065     0.87300
O41         O  0.19091240  0.08528525  0.33860076    -0.54600
O42         O  0.25466616  0.06352479  0.31020473    -0.57900
In43       In  0.74704217  0.07079165  0.35148443     1.36900
C44         C  0.80751179  0.11216951  0.33995332     0.79800
O45         O  0.75629928  0.06189650  0.40496087    -0.58700
O46         O  0.78076760  0.02243047  0.37243136    -0.49600
C47         C  0.68715873  0.11136202  0.36757674     0.72400
O48         O  0.71178648  0.12344955  0.34815881    -0.44400
C49         C  0.71859710  0.03339225  0.30064119     0.77100
O50         O  0.77975416  0.12451268  0.35576649    -0.56300
O51         O  0.74004611  0.06130531  0.29739395    -0.46400
O52         O  0.80424290  0.07896771  0.32946266    -0.52700
C53         C  0.77690840  0.03331304  0.40145901     0.87300
O54         O  0.69266385  0.07844738  0.37817428    -0.54600
O55         O  0.71236340  0.02407430  0.32973707    -0.57900
In56       In  0.74530386  0.39882044  0.38290062     1.36900
C57         C  0.68706294  0.35379304  0.39332036     0.79800
O58         O  0.78320288  0.44607447  0.39905148    -0.58700
O59         O  0.75126333  0.41729760  0.43481095    -0.49600
C60         C  0.80342877  0.35360869  0.37215546     0.72400
O61         O  0.78594901  0.35365336  0.39883563    -0.44400
C62         C  0.71647561  0.44010323  0.33511421     0.77100
O63         O  0.71173163  0.34658487  0.37226529    -0.56300
O64         O  0.74471562  0.41910368  0.33133737    -0.46400
O65         O  0.69215590  0.38368801  0.40918686    -0.52700
C66         C  0.77555833  0.44200169  0.42878649     0.87300
O67         O  0.79107170  0.37623148  0.35097536    -0.54600
O68         O  0.70404531  0.44172356  0.36378338    -0.57900
In69       In  0.66065749  0.48700397  0.25747126     1.36900
C70         C  0.62032849  0.54828315  0.26736520     0.79800
O71         O  0.66784195  0.47718582  0.31098322    -0.58700
O72         O  0.71006409  0.45635200  0.27903291    -0.49600
C73         C  0.61794323  0.42764356  0.24622778     0.72400
O74         O  0.60711346  0.45469213  0.26373991    -0.44400
C75         C  0.70111029  0.51367050  0.20879672     0.77100
O76         O  0.61185189  0.52468120  0.24560418    -0.56300
O77         O  0.70780230  0.52215725  0.23807926    -0.46400
O78         O  0.64940943  0.54077098  0.28388491    -0.52700
C79         C  0.69807706  0.45896740  0.30780529     0.87300
O80         O  0.65029819  0.43101029  0.23413642    -0.54600
O81         O  0.67497329  0.49025941  0.20453277    -0.57900
In82       In  0.34069442  0.48756669  0.27808641     1.36900
C83         C  0.38250749  0.54784442  0.29128232     0.79800
O84         O  0.32770883  0.49399096  0.22504229    -0.58700
O85         O  0.29427033  0.52480986  0.25871674    -0.49600
C86         C  0.38135388  0.42843324  0.26074292     0.72400
O87         O  0.39108257  0.44965516  0.28394400    -0.44400
C88         C  0.30086776  0.45497699  0.32515483     0.77100
O89         O  0.39305809  0.52237238  0.27196870    -0.56300
O90         O  0.33130517  0.47199749  0.33059208    -0.46400
O91         O  0.35097092  0.54236362  0.30437050    -0.52700
C92         C  0.30119843  0.51706221  0.22933818     0.87300
O93         O  0.35103468  0.43728248  0.24660775    -0.54600
O94         O  0.29009091  0.45557936  0.29588246    -0.57900
C95         C  0.47726321  0.27262479  0.22238031     0.04500
C96         C  0.51691013  0.27174864  0.22258558     0.04400
C97         C  0.53598086  0.23747075  0.21880521    -0.16100
C98         C  0.51585767  0.20393531  0.21503308     0.04500
C99         C  0.47617921  0.20489694  0.21453786     0.04400
C100        C  0.45711662  0.23920628  0.21816671    -0.16100
H101        H  0.42644188  0.23979704  0.21835035     0.06500
H102        H  0.56668277  0.23682027  0.21932338     0.06500
In103      In  0.33643311  0.98801694  0.24004973     1.36900
C104        C  0.37567860  0.04832289  0.22514386     0.79800
O105        O  0.32302388  0.97881823  0.18733710    -0.58700
O106        O  0.28980536  0.95062841  0.22270113    -0.49600
C107        C  0.38104243  0.93003268  0.25282648     0.72400
O108        O  0.39003393  0.95531000  0.23277452    -0.44400
C109        C  0.29721165  0.01808232  0.28841084     0.77100
O110        O  0.38583911  0.02584249  0.24732557    -0.56300
O111        O  0.28821743  0.02269337  0.25894351    -0.46400
O112        O  0.34564073  0.03997063  0.21038901    -0.52700
C113        C  0.29674625  0.95607608  0.19299602     0.87300
O114        O  0.34954452  0.93436587  0.26630607    -0.54600
O115        O  0.32543798  0.99720893  0.29319906    -0.57900
In116      In  0.66190864  0.98544099  0.22326442     1.36900
C117        C  0.61974281  0.92523079  0.23368915     0.79800
O118        O  0.67428699  0.97786682  0.16985506    -0.58700
O119        O  0.71030836  0.95093337  0.20423327    -0.49600
C120        C  0.61827896  0.04546203  0.21507950     0.72400
O121        O  0.61008018  0.01912328  0.23430327    -0.44400
C122        C  0.70060625  0.01447102  0.27292900     0.77100
O123        O  0.61139680  0.94944589  0.21232157    -0.56300
O124        O  0.70900218  0.02118680  0.24365363    -0.46400
O125        O  0.64949389  0.93166640  0.24960465    -0.52700
C126        C  0.70169993  0.95585984  0.17468533     0.87300
O127        O  0.64826971  0.04083715  0.19919523    -0.54600
O128        O  0.67411836  0.99140311  0.27664961    -0.57900
C129        C  0.48161105  0.70698434  0.29277157     0.04500
C130        C  0.52058423  0.70581720  0.28646956     0.04400
C131        C  0.53977616  0.73882130  0.27824595    -0.16100
C132        C  0.52041547  0.77303765  0.27558816     0.04500
C133        C  0.48152424  0.77439529  0.28211284     0.04400
C134        C  0.46239243  0.74146839  0.29092964    -0.16100
H135        H  0.43213977  0.74246759  0.29525768     0.06500
H136        H  0.56978100  0.73763322  0.27283518     0.06500
C137        C  0.53252024  0.74869042  0.08886624     0.04500
C138        C  0.53199715  0.70964498  0.09494271     0.04400
C139        C  0.49801089  0.69161593  0.10191646    -0.16100
C140        C  0.46437477  0.71213046  0.10287016     0.04500
C141        C  0.46467232  0.75095944  0.09583128     0.04400
C142        C  0.49870167  0.76903609  0.08895190    -0.16100
H143        H  0.49895225  0.79927477  0.08430416     0.06500
H144        H  0.49786291  0.66154034  0.10730475     0.06500
C145        C  0.96477966  0.75294086  0.15422031     0.04500
C146        C  0.96415723  0.71400167  0.16072385     0.04400
C147        C  0.99783304  0.69466631  0.16703770    -0.16100
C148        C  0.03224111  0.71375688  0.16667428     0.04500
C149        C  0.03287565  0.75281174  0.16052199     0.04400
C150        C  0.99911138  0.77219221  0.15448701    -0.16100
H151        H  0.99964782  0.80227977  0.14920363     0.06500
H152        H  0.99734509  0.66439547  0.17142683     0.06500
In153      In  0.24737177  0.89464914  0.11998987     1.36900
C154        C  0.30776598  0.85319464  0.10860082     0.79800
O155        O  0.21101657  0.94080108  0.09927811    -0.58700
O156        O  0.23997827  0.90461456  0.06650018    -0.49600
C157        C  0.18860174  0.85291863  0.13524792     0.72400
O158        O  0.21122382  0.84365831  0.11302204    -0.44400
C159        C  0.27732126  0.93586746  0.16707881     0.77100
O160        O  0.28242437  0.84290718  0.12799227    -0.56300
O161        O  0.25771520  0.90715711  0.17264214    -0.46400
O162        O  0.30222791  0.88439584  0.09477111    -0.52700
C163        C  0.21786178  0.93207520  0.07011426     0.87300
O164        O  0.19575898  0.88353301  0.14950010    -0.54600
O165        O  0.28040373  0.94458963  0.13745490    -0.57900
In166      In  0.25097188  0.57098977  0.15193162     1.36900
C167        C  0.31017056  0.61386146  0.14010344     0.79800
O168        O  0.25996104  0.56270921  0.20561234    -0.58700
O169        O  0.28557471  0.52386806  0.17304009    -0.49600
C170        C  0.18975494  0.61144710  0.16274171     0.72400
O171        O  0.21488004  0.62172407  0.14308178    -0.44400
C172        C  0.22276518  0.53155478  0.10244758     0.77100
O173        O  0.28343027  0.62469362  0.15793061    -0.56300
O174        O  0.24492571  0.55877885  0.09856628    -0.46400
O175        O  0.30658608  0.58139461  0.12806379    -0.52700
C176        C  0.28130598  0.53463133  0.20206233     0.87300
O177        O  0.19592903  0.58064538  0.17717489    -0.54600
O178        O  0.21643809  0.52303174  0.13174128    -0.57900
In179      In  0.74995195  0.89324563  0.10106203     1.36900
C180        C  0.69026072  0.85005130  0.09078641     0.79800
O181        O  0.74436966  0.90991428  0.15359097    -0.58700
O182        O  0.71232162  0.94042558  0.11856685    -0.49600
C183        C  0.80916296  0.85020303  0.11511243     0.72400
O184        O  0.78424965  0.84019231  0.09496263    -0.44400
C185        C  0.77986141  0.93269331  0.05249776     0.77100
O186        O  0.71329645  0.84411581  0.11369284    -0.56300
O187        O  0.78289968  0.94231856  0.08192363    -0.46400
O188        O  0.69766746  0.87792529  0.07289859    -0.52700
C189        C  0.72040811  0.93545169  0.14822747     0.87300
O190        O  0.80399751  0.88201949  0.12791688    -0.54600
O191        O  0.76054544  0.90351540  0.04765280    -0.57900
In192      In  0.74874624  0.56948333  0.13207613     1.36900
C193        C  0.68745022  0.60806401  0.11775951     0.79800
O194        O  0.75889342  0.55949791  0.07910617    -0.58700
O195        O  0.78314155  0.52116730  0.11318615    -0.49600
C196        C  0.80697102  0.61348481  0.14400069     0.72400
O197        O  0.78079119  0.62303317  0.12482778    -0.44400
C198        C  0.72031139  0.53162593  0.18165371     0.77100
O199        O  0.71132895  0.61964068  0.13822662    -0.56300
O200        O  0.71522235  0.52166848  0.15249499    -0.46400
O201        O  0.69465984  0.57673748  0.10473633    -0.52700
C202        C  0.77941970  0.53102011  0.08382436     0.87300
O203        O  0.80333160  0.58171485  0.15730879    -0.54600
O204        O  0.74136988  0.55974822  0.18553110    -0.57900
In205      In  0.83631015  0.49109195  0.50258337     1.36900
C206        C  0.88492040  0.42557489  0.02095559     0.79800
O207        O  0.79347690  0.52048909  0.02783241    -0.58700
O208        O  0.82515378  0.48876383  0.06243636    -0.49600
C209        C  0.87946198  0.54941272  0.48881986     0.72400
O210        O  0.88826939  0.52555627  0.51032143    -0.44400
C211        C  0.79533217  0.46213684  0.45465461     0.77100
O212        O  0.89596915  0.45368712  0.00498877    -0.56300
O213        O  0.78575202  0.45988240  0.48409683    -0.46400
O214        O  0.85179478  0.42759255  0.03153030    -0.52700
C215        C  0.79931882  0.51244009  0.05734534     0.87300
O216        O  0.84835692  0.54395720  0.47466430    -0.54600
O217        O  0.82473353  0.48088056  0.44950797    -0.57900
In218      In  0.16531305  0.48538987  0.02475963     1.36900
C219        C  0.12242002  0.42530377  0.03367039     0.79800
O220        O  0.17425401  0.47939844  0.46733749    -0.58700
O221        O  0.20813825  0.44963055  0.50153460    -0.49600
C222        C  0.12486239  0.54980693  0.50457058     0.72400
O223        O  0.11250738  0.52624802  0.52484684    -0.44400
C224        C  0.20404954  0.51308213  0.07493356     0.77100
O225        O  0.11232995  0.45262725  0.01606451    -0.56300
O226        O  0.21169658  0.52088450  0.04575466    -0.46400
O227        O  0.15407428  0.42881604  0.04735561    -0.52700
C228        C  0.20017372  0.45564535  0.47200560     0.87300
O229        O  0.15643227  0.54185626  0.49235150    -0.54600
O230        O  0.17764859  0.48985218  0.07852581    -0.57900
C231        C  0.02215884  0.26644176  0.03267917     0.04500
C232        C  0.98252186  0.26600302  0.03285380     0.04400
C233        C  0.96319894  0.23178907  0.03065186    -0.16100
C234        C  0.98311673  0.19791009  0.02766851     0.04500
C235        C  0.02277111  0.19848201  0.02690220     0.04400
C236        C  0.04206536  0.23262891  0.02964923    -0.16100
H237        H  0.07275762  0.23292219  0.02903740     0.06500
H238        H  0.93250816  0.23160876  0.03062776     0.06500
In239      In  0.16565407  0.98295776  0.99206057     1.36900
C240        C  0.11794508  0.93080197  0.47772079     0.79800
O241        O  0.20589347  0.02760455  0.46972989    -0.58700
O242        O  0.17340766  0.99530666  0.43645602    -0.49600
C243        C  0.12432828  0.04282569  0.00397895     0.72400
O244        O  0.11439679  0.01814790  0.98362936    -0.44400
C245        C  0.20056471  0.95147341  0.04247195     0.77100
O246        O  0.10748386  0.95736512  0.49594868    -0.56300
O247        O  0.21093668  0.94610752  0.01350826    -0.46400
O248        O  0.15031437  0.93414324  0.46565058    -0.52700
C249        C  0.19850828  0.01978649  0.44043598     0.87300
O250        O  0.15513591  0.03682238  0.01852031    -0.54600
O251        O  0.17337146  0.97396422  0.04574844    -0.57900
In252      In  0.83945146  0.98508011  0.97967198     1.36900
C253        C  0.88104319  0.04400092  0.99659969     0.79800
O254        O  0.82375390  0.99332749  0.42533273    -0.58700
O255        O  0.78900974  0.02384934  0.45810481    -0.49600
C256        C  0.87861958  0.92840451  0.46960109     0.72400
O257        O  0.88907850  0.95530288  0.48747964    -0.44400
C258        C  0.79904597  0.95279306  0.02629217     0.77100
O259        O  0.89221003  0.01967417  0.97643897    -0.56300
O260        O  0.82348188  0.97755981  0.03200240    -0.46400
O261        O  0.84861507  0.03852462  0.00795314    -0.52700
C262        C  0.79659535  0.01584574  0.42895368     0.87300
O263        O  0.84691962  0.93266546  0.45616345    -0.54600
O264        O  0.79381210  0.94562423  0.99652321    -0.57900
C265        C  0.98420222  0.70203382  0.46491942     0.04500
C266        C  0.02360056  0.70405470  0.46892300     0.04400
C267        C  0.04143275  0.73910194  0.46779021    -0.16100
C268        C  0.02028012  0.77211376  0.46354165     0.04500
C269        C  0.98082619  0.77020980  0.46045993     0.04400
C270        C  0.96307587  0.73510826  0.46071403    -0.16100
H271        H  0.93250735  0.73357862  0.45847367     0.06500
H272        H  0.07186586  0.74077661  0.47090544     0.06500
C273        C  0.95810492  0.80398935  0.45908395    -0.16300
C274        C  0.93985196  0.83267222  0.45981623     0.07700
C275        C  0.91893445  0.86640897  0.46226358     0.09600
C276        C  0.90088145  0.89500997  0.46524190    -0.17200
C277        C  0.09488328  0.89870779  0.47156705    -0.16300
C278        C  0.07636944  0.87081626  0.46759940     0.10900
C279        C  0.05598721  0.83715123  0.46469119     0.09600
C280        C  0.03946940  0.80769785  0.46360877    -0.17200
C281        C  0.04420691  0.16454156  0.02267196    -0.16300
C282        C  0.06242969  0.13638083  0.01885292     0.07700
C283        C  0.08384541  0.10360648  0.01420710     0.09600
C284        C  0.10226775  0.07568490  0.00987844    -0.17200
C285        C  0.96234030  0.16324730  0.02405422    -0.16300
C286        C  0.94432351  0.13495211  0.01969224     0.07700
C287        C  0.92253709  0.10269184  0.01289985     0.09600
C288        C  0.90361709  0.07572407  0.00587794    -0.17200
C289        C  0.09988807  0.39213113  0.03699397    -0.16300
C290        C  0.08135738  0.36379315  0.03771257     0.07700
C291        C  0.06032833  0.33020798  0.03673791     0.09600
C292        C  0.04284863  0.30124745  0.03505959    -0.17200
C293        C  0.04603738  0.67087508  0.47541124    -0.16300
C294        C  0.06483853  0.64341261  0.48157069     0.07700
C295        C  0.08646156  0.61114892  0.48921955     0.09600
C296        C  0.10434361  0.58328959  0.49603406    -0.17200
C297        C  0.96138124  0.30052315  0.03355785    -0.16300
C298        C  0.94473362  0.32998786  0.03245959     0.07700
C299        C  0.92546240  0.36439418  0.02959095     0.09600
C300        C  0.90789983  0.39307587  0.02610000    -0.17200
C301        C  0.96452016  0.66673562  0.46676134    -0.16300
C302        C  0.94631046  0.63844753  0.46974630     0.07700
C303        C  0.92345002  0.60677721  0.47509811     0.09600
C304        C  0.90330817  0.58048281  0.48096394    -0.17200
C305        C  0.15628174  0.63318388  0.16791799    -0.16300
C306        C  0.12807877  0.65182359  0.17061476     0.07700
C307        C  0.09499277  0.67379629  0.17164097     0.09600
C308        C  0.06654616  0.69233518  0.17051723    -0.17200
C309        C  0.15673851  0.83035536  0.14357170    -0.16300
C310        C  0.12937441  0.81180445  0.14973013     0.07700
C311        C  0.09654754  0.79068670  0.15537035     0.09600
C312        C  0.06783447  0.77317108  0.15858714    -0.17200
C313        C  0.92945698  0.69319409  0.15962436    -0.16300
C314        C  0.90044674  0.67595715  0.15755025     0.07700
C315        C  0.86694640  0.65534265  0.15388517     0.09600
C316        C  0.83904531  0.63679668  0.14982139    -0.17200
C317        C  0.84124920  0.82723700  0.12296620    -0.16300
C318        C  0.86896307  0.80931162  0.13013284     0.07700
C319        C  0.90211103  0.78964291  0.13880131     0.09600
C320        C  0.93069245  0.77320419  0.14608834    -0.17200
C321        C  0.34244067  0.63682269  0.13385638    -0.16300
C322        C  0.36986067  0.65537603  0.12779096     0.07700
C323        C  0.40223155  0.67611235  0.11955955     0.09600
C324        C  0.43022420  0.69295342  0.11190273    -0.17200
C325        C  0.43058434  0.77287616  0.09631325    -0.16300
C326        C  0.40212135  0.79123136  0.09732155     0.07700
C327        C  0.36897874  0.81273303  0.09970323     0.09600
C328        C  0.34083129  0.83117113  0.10306127    -0.17200
C329        C  0.56609818  0.68783811  0.09588843    -0.16300
C330        C  0.59421942  0.66919483  0.09853146     0.07700
C331        C  0.62672500  0.64743591  0.10383598     0.09600
C332        C  0.65443233  0.62917676  0.10979080    -0.17200
C333        C  0.56746137  0.76874377  0.08456490    -0.16300
C334        C  0.59637560  0.78635651  0.08307167     0.07700
C335        C  0.62968258  0.80793628  0.08360259     0.09600
C336        C  0.65760258  0.82700069  0.08590509    -0.17200
C337        C  0.59688027  0.89279401  0.23987132    -0.16300
C338        C  0.57844060  0.86546441  0.24663353     0.07700
C339        C  0.55776514  0.83343506  0.25611356     0.09600
C340        C  0.54065403  0.80603150  0.26496883    -0.17200
C341        C  0.46054355  0.80883976  0.27797604    -0.16300
C342        C  0.44346703  0.83760433  0.27297261     0.07700
C343        C  0.42315446  0.87074668  0.26598839     0.09600
C344        C  0.40470685  0.89833468  0.25978992    -0.17200
C345        C  0.39660847  0.08143044  0.21768072    -0.16300
C346        C  0.41459382  0.10959419  0.21352689     0.07700
C347        C  0.43603549  0.14264784  0.21145154     0.09600
C348        C  0.45447133  0.17095088  0.21187608    -0.17200
C349        C  0.53646742  0.16891709  0.21280185    -0.16300
C350        C  0.55449956  0.14011021  0.21177225     0.07700
C351        C  0.57636387  0.10685095  0.21145405     0.09600
C352        C  0.59542043  0.07869449  0.21221257    -0.17200
C353        C  0.40303530  0.39632058  0.25103789    -0.16300
C354        C  0.42035476  0.36873903  0.24282503     0.07700
C355        C  0.44005116  0.33579538  0.23408591     0.09600
C356        C  0.45684723  0.30717595  0.22792736    -0.17200
C357        C  0.46049807  0.67282183  0.29836483    -0.16300
C358        C  0.44295694  0.64384865  0.30040706     0.07700
C359        C  0.42230696  0.60986437  0.29987149     0.09600
C360        C  0.40436851  0.58120275  0.29712011    -0.17200
C361        C  0.59527165  0.39507015  0.24075296    -0.16300
C362        C  0.57693618  0.36710295  0.23643925     0.07700
C363        C  0.55612105  0.33397749  0.23151281     0.09600
C364        C  0.53842676  0.30556465  0.22735298    -0.17200
C365        C  0.54099944  0.67080517  0.28585395    -0.16300
C366        C  0.55872048  0.64209259  0.28315554     0.07700
C367        C  0.57993195  0.60916692  0.27811326     0.09600
C368        C  0.59831190  0.58130425  0.27313296    -0.17200
C369        C  0.15700262  0.14271786  0.33939467    -0.16300
C370        C  0.12947882  0.16199562  0.33475028     0.07700
C371        C  0.09616375  0.18357780  0.33205048     0.09600
C372        C  0.06690016  0.20090377  0.33216611    -0.17200
C373        C  0.92519940  0.27347888  0.35010183    -0.16300
C374        C  0.89616780  0.29014897  0.35510694     0.07700
C375        C  0.86303816  0.31099685  0.36113934     0.09600
C376        C  0.83542777  0.32986326  0.36631087    -0.17200
C377        C  0.92926633  0.19456998  0.33082880    -0.16300
C378        C  0.90130459  0.17543861  0.33023667     0.07700
C379        C  0.86861362  0.15308137  0.33182168     0.09600
C380        C  0.84068034  0.13423328  0.33475485    -0.17200
C381        C  0.33990042  0.13445009  0.38955295    -0.16300
C382        C  0.36795787  0.15127456  0.39692242     0.07700
C383        C  0.40130975  0.17080318  0.40402564     0.09600
C384        C  0.43011766  0.18781405  0.40818532    -0.17200
C385        C  0.56661253  0.27066446  0.40890877    -0.16300
C386        C  0.59503577  0.28884480  0.40650943     0.07700
C387        C  0.62778116  0.31066802  0.40262406     0.09600
C388        C  0.65519980  0.32996148  0.39861837    -0.17200
C389        C  0.65522594  0.13351405  0.37726952    -0.16300
C390        C  0.62809220  0.15146671  0.38574747     0.07700
C391        C  0.59568202  0.17192521  0.39496579     0.09600
C392        C  0.56737356  0.18917570  0.40145815    -0.17200
C393        C  0.33557016  0.32321380  0.41272624    -0.16300
C394        C  0.36421650  0.30501498  0.41532516     0.07700
C395        C  0.39887057  0.28529141  0.41647497     0.09600
C396        C  0.42868309  0.26882342  0.41602719    -0.17200
C397        C  0.15149189  0.33470917  0.37420844    -0.16300
C398        C  0.12337443  0.31735850  0.36760733     0.07700
C399        C  0.09063071  0.29685754  0.35975928     0.09600
C400        C  0.06273596  0.27917663  0.35310070    -0.17200
In401      In  0.25240844  0.40150555  0.89774062     1.36900
C402        C  0.19265171  0.35886748  0.88701258     0.79800
O403        O  0.24784372  0.41400521  0.95139462    -0.58700
O404        O  0.21619418  0.44777969  0.91846920    -0.49600
C405        C  0.31217684  0.35859127  0.90888135     0.72400
O406        O  0.28558934  0.34837037  0.89045506    -0.44400
C407        C  0.28072776  0.43949801  0.84741618     0.77100
O408        O  0.21924322  0.34858614  0.90549539    -0.56300
O409        O  0.28773243  0.44803083  0.87661725    -0.46400
O410        O  0.19648736  0.39081247  0.87403211    -0.52700
C411        C  0.22401053  0.44001283  0.94769748     0.87300
O412        O  0.30819126  0.39054568  0.92186731    -0.54600
O413        O  0.25783919  0.41280184  0.84386211    -0.57900
C414        C  0.46989318  0.25614707  0.91498076     0.04500
C415        C  0.46969952  0.21746401  0.90732780     0.04400
C416        C  0.50376751  0.19850952  0.90176649    -0.16100
C417        C  0.53803291  0.21790515  0.90325065     0.04500
C418        C  0.53818844  0.25650636  0.91132863     0.04400
C419        C  0.50417188  0.27528535  0.91732957    -0.16100
H420        H  0.50429843  0.30532558  0.92281580     0.06500
H421        H  0.50352193  0.16875022  0.89531534     0.06500
C422        C  0.03743633  0.22021222  0.84901439     0.04500
C423        C  0.03722744  0.25912406  0.85568287     0.04400
C424        C  0.00295139  0.27863073  0.85693808    -0.16100
C425        C  0.96896422  0.25950608  0.85221960     0.04500
C426        C  0.96925253  0.22049405  0.84608455     0.04400
C427        C  0.00349404  0.20112556  0.84424708    -0.16100
H428        H  0.00370151  0.17089355  0.83969110     0.06500
H429        H  0.00268735  0.30876177  0.86212250     0.06500
In430      In  0.25369264  0.07497798  0.87081167     1.36900
C431        C  0.31254840  0.11821984  0.88286056     0.79800
O432        O  0.24552786  0.06203227  0.92390665    -0.58700
O433        O  0.22065022  0.02546735  0.88911341    -0.49600
C434        C  0.19370464  0.11698219  0.85976065     0.72400
O435        O  0.21833325  0.12585262  0.88058523    -0.44400
C436        C  0.28260150  0.03795274  0.82059673     0.77100
O437        O  0.28611176  0.12852801  0.86421929    -0.56300
O438        O  0.29247235  0.03158463  0.84962474    -0.46400
O439        O  0.30893560  0.08601336  0.89537273    -0.52700
C440        C  0.22510555  0.03376635  0.91870413     0.87300
O441        O  0.19973827  0.08685177  0.84438521    -0.54600
O442        O  0.25704517  0.06235560  0.81722289    -0.57900
In443      In  0.75242748  0.07565215  0.85502466     1.36900
C444        C  0.81180533  0.11908729  0.84697228     0.79800
O445        O  0.75563215  0.05804584  0.90760061    -0.58700
O446        O  0.79230009  0.03125968  0.87400971    -0.49600
C447        C  0.69326814  0.11993487  0.86531895     0.72400
O448        O  0.71697804  0.12682161  0.84335181    -0.44400
C449        C  0.72385076  0.03482719  0.80664793     0.77100
O450        O  0.78728718  0.12575368  0.86832214    -0.56300
O451        O  0.74571796  0.06207221  0.80186332    -0.46400
O452        O  0.80573888  0.09071922  0.82928294    -0.52700
C453        C  0.78223002  0.03504857  0.90324172     0.87300
O454        O  0.69975836  0.09071773  0.88187773    -0.54600
O455        O  0.71802878  0.02717079  0.83618305    -0.57900
In456      In  0.75211847  0.40262219  0.88247499     1.36900
C457        C  0.69161198  0.36244071  0.89549399     0.79800
O458        O  0.78802152  0.44887993  0.90339293    -0.58700
O459        O  0.76035066  0.41188287  0.93607313    -0.49600
C460        C  0.81106778  0.35956463  0.87014367     0.72400
O461        O  0.78411434  0.34848630  0.88751138    -0.44400
C462        C  0.72357003  0.44102325  0.83256472     0.77100
O463        O  0.71652665  0.35141452  0.87586767    -0.56300
O464        O  0.74490572  0.41298702  0.82886515    -0.46400
O465        O  0.69739805  0.39410450  0.90849919    -0.52700
C466        C  0.78256543  0.43909291  0.93250970     0.87300
O467        O  0.80783250  0.39241034  0.85877777    -0.54600
O468        O  0.71813724  0.45060315  0.86174145    -0.57900
In469      In  0.66579570  0.48823846  0.75568186     1.36900
C470        C  0.62594366  0.55004844  0.76714151     0.79800
O471        O  0.67687134  0.48103244  0.80906060    -0.58700
O472        O  0.71372355  0.45365099  0.77591508    -0.49600
C473        C  0.62263268  0.42863978  0.74519247     0.72400
O474        O  0.61334172  0.45457859  0.76455556    -0.44400
C475        C  0.70524614  0.51550795  0.70633421     0.77100
O476        O  0.61620585  0.52614018  0.74601943    -0.56300
O477        O  0.71377378  0.52197122  0.73565421    -0.46400
O478        O  0.65593146  0.54250718  0.78237839    -0.52700
C479        C  0.70471533  0.45949480  0.80516832     0.87300
O480        O  0.65351792  0.43334431  0.73081248    -0.54600
O481        O  0.67779654  0.49362856  0.70224093    -0.57900
In482      In  0.33710798  0.48770706  0.77021931     1.36900
C483        C  0.37948865  0.54777112  0.78235796     0.79800
O484        O  0.32752549  0.49957527  0.71724856    -0.58700
O485        O  0.28610944  0.51857640  0.75067401    -0.49600
C486        C  0.37846608  0.42842461  0.75411646     0.72400
O487        O  0.38642487  0.44902418  0.77819693    -0.44400
C488        C  0.29933676  0.45783008  0.81986864     0.77100
O489        O  0.39137462  0.51982586  0.76652763    -0.56300
O490        O  0.32632800  0.48032332  0.82372332    -0.46400
O491        O  0.34614701  0.54504195  0.79241308    -0.52700
C492        C  0.29707864  0.51711356  0.72151116     0.87300
O493        O  0.34914320  0.43764785  0.73855936    -0.54600
O494        O  0.29081830  0.45120900  0.79055999    -0.57900
C495        C  0.47988793  0.27440320  0.72094004     0.04500
C496        C  0.51955725  0.27328068  0.72229511     0.04400
C497        C  0.53840639  0.23871691  0.71971909    -0.16100
C498        C  0.51810077  0.20523872  0.71623818     0.04500
C499        C  0.47847960  0.20632255  0.71488633     0.04400
C500        C  0.45959376  0.24092100  0.71704036    -0.16100
H501        H  0.42893072  0.24169930  0.71649323     0.06500
H502        H  0.56905623  0.23778603  0.72109272     0.06500
In503      In  0.33722158  0.98951642  0.74280230     1.36900
C504        C  0.37957980  0.04819108  0.72828670     0.79800
O505        O  0.32225518  0.98485704  0.68988115    -0.58700
O506        O  0.29111903  0.95212006  0.72360752    -0.49600
C507        C  0.37853756  0.92902030  0.75529389     0.72400
O508        O  0.38779163  0.95289592  0.73405962    -0.44400
C509        C  0.30073107  0.01958075  0.79293838     0.77100
O510        O  0.39115198  0.02192779  0.74647119    -0.56300
O511        O  0.28846244  0.02204505  0.76413731    -0.46400
O512        O  0.34659827  0.04443656  0.71731772    -0.52700
C513        C  0.29702289  0.96060428  0.69425099     0.87300
O514        O  0.34819818  0.93586695  0.77001121    -0.54600
O515        O  0.33078080  0.00104439  0.79610185    -0.57900
In516      In  0.66282102  0.98667646  0.73227565     1.36900
C517        C  0.62067233  0.92678389  0.74401255     0.79800
O518        O  0.67264268  0.98058527  0.67855612    -0.58700
O519        O  0.71118018  0.95380576  0.71093381    -0.49600
C520        C  0.61875712  0.04634570  0.72447368     0.72400
O521        O  0.61314192  0.02221751  0.74640189    -0.44400
C522        C  0.70448374  0.01548177  0.78000040     0.77100
O523        O  0.61166946  0.95113619  0.72301161    -0.56300
O524        O  0.71046547  0.02285325  0.75041344    -0.46400
O525        O  0.65126155  0.93271618  0.75879997    -0.52700
C526        C  0.70125996  0.95985476  0.68182837     0.87300
O527        O  0.64664344  0.04001514  0.70640609    -0.54600
O528        O  0.67873768  0.99192953  0.78500761    -0.57900
C529        C  0.48182872  0.70503098  0.78939237     0.04500
C530        C  0.52130895  0.70531887  0.78572171     0.04400
C531        C  0.53995494  0.73946270  0.78057977    -0.16100
C532        C  0.51971292  0.77327325  0.77853337     0.04500
C533        C  0.48031849  0.77311509  0.78241838     0.04400
C534        C  0.46165666  0.73903785  0.78809128    -0.16100
H535        H  0.43110940  0.73884400  0.79049414     0.06500
H536        H  0.57040107  0.73959248  0.77721876     0.06500
C537        C  0.53194612  0.75608349  0.59247850     0.04500
C538        C  0.53240914  0.71700238  0.59849387     0.04400
C539        C  0.49845137  0.69782992  0.60315890    -0.16100
C540        C  0.46410676  0.71734783  0.60231922     0.04500
C541        C  0.46368673  0.75633879  0.59591196     0.04400
C542        C  0.49757419  0.77539731  0.59089373    -0.16100
H543        H  0.49725236  0.80570650  0.58652845     0.06500
H544        H  0.49882531  0.66770958  0.60831788     0.06500
C545        C  0.96389500  0.76154543  0.64413605     0.04500
C546        C  0.96500939  0.72278566  0.65148176     0.04400
C547        C  0.99957335  0.70504225  0.65769665    -0.16100
C548        C  0.03306335  0.72560660  0.65666221     0.04500
C549        C  0.03187564  0.76446128  0.64987637     0.04400
C550        C  0.99734861  0.78222085  0.64361882    -0.16100
H551        H  0.99655928  0.81220678  0.63794999     0.06500
H552        H  0.00047260  0.67490608  0.66278381     0.06500
In553      In  0.24856435  0.90441122  0.61728235     1.36900
C554        C  0.30828398  0.86190842  0.60578615     0.79800
O555        O  0.21283747  0.95061461  0.59576525    -0.58700
O556        O  0.24160757  0.91423752  0.56324247    -0.49600
C557        C  0.18888744  0.86412877  0.63194176     0.72400
O558        O  0.21401360  0.85221603  0.61289690    -0.44400
C559        C  0.27778796  0.94217658  0.66710794     0.77100
O560        O  0.27988382  0.84977225  0.62069915    -0.56300
O561        O  0.25769949  0.91338807  0.67089170    -0.46400
O562        O  0.30614425  0.89563087  0.59626076    -0.52700
C563        C  0.21917013  0.94149456  0.56664776     0.87300
O564        O  0.19420340  0.89654032  0.64362992    -0.54600
O565        O  0.28166532  0.95266272  0.63798070    -0.57900
In566      In  0.24847499  0.57763188  0.64667710     1.36900
C567        C  0.30840747  0.62000009  0.63667765     0.79800
O568        O  0.25163627  0.55993697  0.69934448    -0.58700
O569        O  0.28704328  0.53212401  0.66543668    -0.49600
C570        C  0.19154179  0.62498644  0.65557633     0.72400
O571        O  0.21771718  0.63171434  0.63583765    -0.44400
C572        C  0.21912535  0.53682187  0.59819731     0.77100
O573        O  0.28738331  0.62469725  0.66105204    -0.56300
O574        O  0.24525183  0.56013779  0.59401282    -0.46400
O575        O  0.29876824  0.59398761  0.61751991    -0.52700
C576        C  0.27756117  0.53628326  0.69475201     0.87300
O577        O  0.19457670  0.59446763  0.67102041    -0.54600
O578        O  0.20894935  0.53304168  0.62738972    -0.57900
In579      In  0.74754319  0.90366750  0.60385388     1.36900
C580        C  0.68765329  0.86070452  0.59473073     0.79800
O581        O  0.74372674  0.91612550  0.65736717    -0.58700
O582        O  0.71176352  0.95021543  0.62483736    -0.49600
C583        C  0.80685127  0.85976119  0.61331758     0.72400
O584        O  0.78241272  0.85273945  0.59177087    -0.44400
C585        C  0.77664101  0.94330946  0.55514583     0.77100
O586        O  0.71430700  0.85139906  0.61348081    -0.56300
O587        O  0.78440423  0.94998466  0.58457888    -0.46400
O588        O  0.69168464  0.89168639  0.58015685    -0.52700
C589        C  0.71990070  0.94218785  0.65398300     0.87300
O590        O  0.80096180  0.88896042  0.63003768    -0.54600
O591        O  0.75234946  0.91805568  0.55070126    -0.57900
In592      In  0.75096897  0.57460664  0.63026012     1.36900
C593        C  0.69046057  0.61695049  0.62043593     0.79800
O594        O  0.75634781  0.56368385  0.57673318    -0.58700
O595        O  0.78722535  0.52863023  0.60936495    -0.49600
C596        C  0.81063255  0.61707191  0.64072442     0.72400
O597        O  0.78573762  0.62555154  0.61996375    -0.44400
C598        C  0.72384162  0.53429404  0.67918318     0.77100
O599        O  0.71622050  0.62631547  0.64003875    -0.56300
O600        O  0.71772820  0.52575648  0.64980007    -0.46400
O601        O  0.69550503  0.58608376  0.60591277    -0.52700
C602        C  0.77995031  0.53743572  0.58022942     0.87300
O603        O  0.80494749  0.58716910  0.65648773    -0.54600
O604        O  0.74531773  0.56201028  0.68344879    -0.57900
In605      In  0.84086716  0.48430947  0.00983935     1.36900
C606        C  0.87706144  0.43001113  0.51460090     0.79800
O607        O  0.79045314  0.52754664  0.52339965    -0.58700
O608        O  0.82598220  0.49732840  0.55612998    -0.49600
C609        C  0.88207613  0.54466255  0.99942954     0.72400
O610        O  0.88644045  0.52446850  0.02447679    -0.44400
C611        C  0.80195308  0.45661035  0.96003231     0.77100
O612        O  0.88805103  0.45549743  0.49555186    -0.56300
O613        O  0.79356129  0.44970856  0.98923250    -0.46400
O614        O  0.84537077  0.43557199  0.52739940    -0.52700
C615        C  0.79889283  0.51995766  0.55256276     0.87300
O616        O  0.85682930  0.53407171  0.97980823    -0.54600
O617        O  0.82940559  0.47850869  0.95632335    -0.57900
In618      In  0.16270613  0.48807298  0.52072893     1.36900
C619        C  0.11839846  0.42964717  0.53290185     0.79800
O620        O  0.17582411  0.47788449  0.97133874    -0.58700
O621        O  0.21486405  0.45316525  0.00442281    -0.49600
C622        C  0.12385839  0.54609049  0.01286312     0.72400
O623        O  0.11494695  0.52220618  0.03420745    -0.44400
C624        C  0.20061663  0.51741502  0.57097840     0.77100
O625        O  0.10792825  0.45695903  0.51537813    -0.56300
O626        O  0.21246752  0.51908871  0.54211465    -0.46400
O627        O  0.15112206  0.43240108  0.54469501    -0.52700
C628        C  0.20491833  0.45799059  0.97516482     0.87300
O629        O  0.15394461  0.53918559  0.99778562    -0.54600
O630        O  0.17045807  0.49934873  0.57434900    -0.57900
C631        C  0.01642346  0.27195252  0.53932113     0.04500
C632        C  0.97683400  0.27229294  0.53645046     0.04400
C633        C  0.95735835  0.23850356  0.53147599    -0.16100
C634        C  0.97694763  0.20439568  0.52845552     0.04500
C635        C  0.01653652  0.20401961  0.53120003     0.04400
C636        C  0.03598800  0.23769768  0.53698851    -0.16100
H637        H  0.06661593  0.23741037  0.53859437     0.06500
H638        H  0.92678748  0.23894726  0.52875523     0.06500
In639      In  0.16101242  0.98957624  0.48978472     1.36900
C640        C  0.12312420  0.92484636  0.97711481     0.79800
O641        O  0.21344243  0.01902534  0.97456866    -0.58700
O642        O  0.17941310  0.99123692  0.93936935    -0.49600
C643        C  0.11779815  0.04847657  0.50240663     0.72400
O644        O  0.10946185  0.02477201  0.48067117    -0.44400
C645        C  0.20030049  0.95998334  0.53912215     0.77100
O646        O  0.11173027  0.95106841  0.99531812    -0.56300
O647        O  0.20832465  0.95332585  0.50978862    -0.46400
O648        O  0.15600271  0.92848632  0.96611267    -0.52700
C649        C  0.20603506  0.01368754  0.94486804     0.87300
O650        O  0.14805861  0.04212274  0.51770357    -0.54600
O651        O  0.17348594  0.98276007  0.54308974    -0.57900
In652      In  0.83621383  0.98911130  0.47904155     1.36900
C653        C  0.87735607  0.04995382  0.49100208     0.79800
O654        O  0.83177126  0.99806887  0.92648684    -0.58700
O655        O  0.78970049  0.01713761  0.95919233    -0.49600
C656        C  0.88226078  0.92546410  0.96761735     0.72400
O657        O  0.88938190  0.94812726  0.99045174    -0.44400
C658        C  0.79619032  0.96154962  0.52815094     0.77100
O659        O  0.88684155  0.02572839  0.47006436    -0.56300
O660        O  0.82488611  0.98170390  0.53244565    -0.46400
O661        O  0.84688271  0.04334795  0.50550806    -0.52700
C662        C  0.80135282  0.01583007  0.93024392     0.87300
O663        O  0.85363869  0.93340856  0.95063881    -0.54600
O664        O  0.78700928  0.95658016  0.49877265    -0.57900
C665        C  0.98286394  0.69992039  0.97305322     0.04500
C666        C  0.02217304  0.70028776  0.97792523     0.04400
C667        C  0.04185385  0.73418120  0.97511471    -0.16100
C668        C  0.02267142  0.76767027  0.96778852     0.04500
C669        C  0.98334891  0.76736109  0.96313013     0.04400
C670        C  0.96371609  0.73339025  0.96553037    -0.16100
H671        H  0.93322467  0.73314597  0.96231695     0.06500
H672        H  0.07221547  0.73459304  0.97907423     0.06500
C673        C  0.96238258  0.80183648  0.95834157    -0.16300
C674        C  0.94454049  0.83074313  0.95706139     0.07700
C675        C  0.92326905  0.86431429  0.95852417     0.09600
C676        C  0.90476075  0.89256104  0.96180984    -0.17200
C677        C  0.10064290  0.89251220  0.97034238    -0.16300
C678        C  0.08223108  0.86444204  0.96703031     0.10900
C679        C  0.06129643  0.83098378  0.96569790     0.09600
C680        C  0.04367423  0.80215596  0.96611935    -0.17200
C681        C  0.03772641  0.16975275  0.52644142    -0.16300
C682        C  0.05523798  0.14123402  0.52143295     0.07700
C683        C  0.07607545  0.10825690  0.51491417     0.09600
C684        C  0.09464890  0.08062078  0.50917545    -0.17200
C685        C  0.95612331  0.17054420  0.52086013    -0.16300
C686        C  0.93867534  0.14258212  0.51374609     0.07700
C687        C  0.91792344  0.11013021  0.50514452     0.09600
C688        C  0.89972506  0.08260264  0.49818289    -0.17200
C689        C  0.09513875  0.39722700  0.53830339    -0.16300
C690        C  0.07643298  0.36912647  0.54127495     0.07700
C691        C  0.05527330  0.33552097  0.54279903     0.09600
C692        C  0.03754709  0.30656897  0.54227041    -0.17200
C693        C  0.04282263  0.66642734  0.98603803    -0.16300
C694        C  0.06076668  0.63851916  0.99258410     0.07700
C695        C  0.08243551  0.60620318  0.99995267     0.09600
C696        C  0.10126871  0.57874761  0.00603175    -0.17200
C697        C  0.95591926  0.30714972  0.53571294    -0.16300
C698        C  0.93818359  0.33591509  0.53265490     0.07700
C699        C  0.91720880  0.36904560  0.52699392     0.09600
C700        C  0.89904785  0.39701771  0.52135502    -0.17200
C701        C  0.96149332  0.66592532  0.97712888    -0.16300
C702        C  0.94356255  0.63777879  0.98173150     0.07700
C703        C  0.92252134  0.60514060  0.98802983     0.09600
C704        C  0.90427765  0.57741769  0.99351042    -0.17200
C705        C  0.15992270  0.64968665  0.65951464    -0.16300
C706        C  0.13195063  0.66878870  0.66156401     0.07700
C707        C  0.09798366  0.68938695  0.66215011     0.09600
C708        C  0.06842355  0.70605380  0.66078430    -0.17200
C709        C  0.15613787  0.84255953  0.63921813    -0.16300
C710        C  0.12796604  0.82467589  0.64363477     0.07700
C711        C  0.09451759  0.80405324  0.64688043     0.09600
C712        C  0.06584058  0.78630831  0.64853728    -0.17200
C713        C  0.93127560  0.70047876  0.65169273    -0.16300
C714        C  0.90335769  0.68142969  0.65092495     0.07700
C715        C  0.87094611  0.65892977  0.64874935     0.09600
C716        C  0.84332962  0.63973088  0.64573097    -0.17200
C717        C  0.83922223  0.83631801  0.61851668    -0.16300
C718        C  0.86703032  0.81770165  0.62366653     0.07700
C719        C  0.90017080  0.79716749  0.63046955     0.09600
C720        C  0.92894805  0.78054499  0.63667958    -0.17200
C721        C  0.34105738  0.64255539  0.63089924    -0.16300
C722        C  0.36885055  0.66045639  0.62468301     0.07700
C723        C  0.40165675  0.68049552  0.61650422     0.09600
C724        C  0.42993715  0.69727014  0.60959139    -0.17200
C725        C  0.42911142  0.77769177  0.59567110    -0.16300
C726        C  0.40090028  0.79657496  0.59620598     0.07700
C727        C  0.36847021  0.81940050  0.59791315     0.09600
C728        C  0.34095482  0.83901158  0.60064178    -0.17200
C729        C  0.56734167  0.69643670  0.60155254    -0.16300
C730        C  0.59624625  0.67903689  0.60518804     0.07700
C731        C  0.62959785  0.65818057  0.61033190     0.09600
C732        C  0.65763633  0.63972462  0.61500829    -0.17200
C733        C  0.56628981  0.77731089  0.58962777    -0.16300
C734        C  0.59448333  0.79601087  0.58866974     0.07700
C735        C  0.62708193  0.81850215  0.58908489     0.09600
C736        C  0.65480129  0.83784333  0.59080845    -0.17200
C737        C  0.59766825  0.89467468  0.75077554    -0.16300
C738        C  0.57872958  0.86754651  0.75696230     0.07700
C739        C  0.55732321  0.83540782  0.76460284     0.09600
C740        C  0.53979875  0.80745167  0.77117334    -0.17200
C741        C  0.45847390  0.80722502  0.77884746    -0.16300
C742        C  0.44047777  0.83563165  0.77445884     0.07700
C743        C  0.41934005  0.86854559  0.76813846     0.09600
C744        C  0.40092790  0.89631783  0.76227340    -0.17200
C745        C  0.40196371  0.08058445  0.72123458    -0.16300
C746        C  0.41973562  0.10891564  0.71685386     0.07700
C747        C  0.43969446  0.14292217  0.71386864     0.09600
C748        C  0.45687793  0.17207717  0.71327513    -0.17200
C749        C  0.53834663  0.16999810  0.71554522    -0.16300
C750        C  0.55554116  0.14072293  0.71613049     0.07700
C751        C  0.57650964  0.10706064  0.71806979     0.09600
C752        C  0.59535730  0.07896197  0.72061475    -0.17200
C753        C  0.40123311  0.39675962  0.74499701    -0.16300
C754        C  0.42015264  0.36984895  0.73770174     0.07700
C755        C  0.44168355  0.33758057  0.73023197     0.09600
C756        C  0.45941990  0.30920452  0.72517883    -0.17200
C757        C  0.46120166  0.67019515  0.79219951    -0.16300
C758        C  0.44305756  0.64153871  0.79257154     0.07700
C759        C  0.42112673  0.60848081  0.79092799     0.09600
C760        C  0.40212063  0.58059919  0.78789557    -0.17200
C761        C  0.59993859  0.39582935  0.74013958    -0.16300
C762        C  0.58135620  0.36788378  0.73606604     0.07700
C763        C  0.55978631  0.33506913  0.73127757     0.09600
C764        C  0.54138720  0.30701754  0.72712314    -0.17200
C765        C  0.54315662  0.67099474  0.78515377    -0.16300
C766        C  0.56250391  0.64317148  0.78286508     0.07700
C767        C  0.58533909  0.61102210  0.77838292     0.09600
C768        C  0.60427118  0.58337067  0.77351740    -0.17200
C769        C  0.16090573  0.13946123  0.85425222    -0.16300
C770        C  0.13308482  0.15842690  0.85092259     0.07700
C771        C  0.10031107  0.18050534  0.84871891     0.09600
C772        C  0.07192949  0.19899794  0.84822612    -0.17200
C773        C  0.93414058  0.28015868  0.85450495    -0.16300
C774        C  0.90509448  0.29744416  0.85683773     0.07700
C775        C  0.87155747  0.31818787  0.86033494     0.09600
C776        C  0.84350816  0.33667439  0.86424649    -0.17200
C777        C  0.93481088  0.19954659  0.84304013    -0.16300
C778        C  0.90616634  0.18163629  0.84189851     0.07700
C779        C  0.87288417  0.16033120  0.84209085     0.09600
C780        C  0.84470873  0.14175905  0.84356666    -0.17200
C781        C  0.34474010  0.14128995  0.88918434    -0.16300
C782        C  0.37255708  0.15970756  0.89423797     0.07700
C783        C  0.40589433  0.18021097  0.89961723     0.09600
C784        C  0.43485039  0.19719105  0.90356616    -0.17200
C785        C  0.57248083  0.27805642  0.91154918    -0.16300
C786        C  0.60019984  0.29739916  0.91022560     0.07700
C787        C  0.63192167  0.32072394  0.90683195     0.09600
C788        C  0.65899888  0.34032293  0.90239803    -0.17200
C789        C  0.66110279  0.14350426  0.87133012    -0.16300
C790        C  0.63347031  0.16175282  0.87799346     0.07700
C791        C  0.60065065  0.18172128  0.88700367     0.09600
C792        C  0.57232903  0.19822678  0.89480339    -0.17200
C793        C  0.34498245  0.33570914  0.91419444    -0.16300
C794        C  0.37307541  0.31685721  0.91720489     0.07700
C795        C  0.40646854  0.29528125  0.91877642     0.09600
C796        C  0.43527467  0.27723175  0.91820460    -0.17200
C797        C  0.16031562  0.33583344  0.88100933    -0.16300
C798        C  0.13276980  0.31720986  0.87535942     0.07700
C799        C  0.10003061  0.29638947  0.86827317     0.09600
C800        C  0.07162643  0.27925406  0.86225459    -0.17200
loop_ 
_geom_bond_atom_site_label_1 
_geom_bond_atom_site_label_2 
_geom_bond_distance 
_geom_bond_site_symmetry_2 
_ccdc_geom_bond_type 
In1           O3   2.249       .  S
In1           O4   2.255       .  S
In1          O12   2.242       .  S
In1           O6   2.248       .  S
In1           O8   2.247       .  S
In1           O9   2.251       .  S
In1          O10   2.243       .  S
In1          O13   2.250       .  S
C2            O8   1.259       .  A
C2           O10   1.258       .  A
C2          C397   1.432       .  S
O3           C11   1.258       .  A
O4           C11   1.259       .  A
C5           O12   1.260       .  A
C5            O6   1.261       .  A
C5          C393   1.436       .  S
C7            O9   1.259       .  A
C7           O13   1.258       .  A
C7           C88   1.463       .  S
C11         C228   1.464       .  S
C14         C396   1.446       .  S
C14          C15   1.407       .  A
C14          C19   1.400       .  A
C15         C384   1.436       .  S
C15          C16   1.398       .  A
C16          C17   1.398       .  A
C16          H21   1.088       .  S
C17         C392   1.443       .  S
C17          C18   1.408       .  A
C18         C385   1.440       .  S
C18          C19   1.402       .  A
C19          H20   1.089       .  S
C22         C372   1.442       .  S
C22          C23   1.408       .  A
C22          C27   1.400   1_455  A
C23         C400   1.441       .  S
C23          C24   1.399   1_455  A
C24          C25   1.399       .  A
C24          H29   1.089       .  S
C25         C373   1.442       .  S
C25          C26   1.408       .  A
C26         C377   1.441       .  S
C26          C27   1.400       .  A
C27          H28   1.089       .  S
In30         O32   2.238       .  S
In30         O33   2.248       .  S
In30         O41   2.244       .  S
In30         O35   2.241       .  S
In30         O37   2.235       .  S
In30         O38   2.246       .  S
In30         O39   2.228       .  S
In30         O42   2.244       .  S
C31          O37   1.260       .  A
C31          O39   1.258       .  A
C31         C381   1.425       .  S
O32          C40   1.257       .  A
O33          C40   1.260       .  A
C34          O41   1.260       .  A
C34          O35   1.259       .  A
C34         C369   1.433       .  S
C36          O38   1.258       .  A
C36          O42   1.257       .  A
C36         C109   1.458       .  S
C40         C249   1.459       .  S
In43         O45   2.238       .  S
In43         O46   2.255       .  S
In43         O54   2.238       .  S
In43         O48   2.247       .  S
In43         O50   2.241       .  S
In43         O51   2.256       .  S
In43         O52   2.245       .  S
In43         O55   2.249       .  S
C44          O50   1.259       .  A
C44          O52   1.259       .  A
C44         C380   1.432       .  S
O45          C53   1.256       .  A
O46          C53   1.259       .  A
C47          O54   1.260       .  A
C47          O48   1.261       .  A
C47         C389   1.434       .  S
C49          O51   1.258       .  A
C49          O55   1.259       .  A
C49         C122   1.465       .  S
C53         C262   1.460       .  S
In56         O58   2.250       .  S
In56         O59   2.237       .  S
In56         O67   2.237       .  S
In56         O61   2.246       .  S
In56         O63   2.248       .  S
In56         O64   2.233       .  S
In56         O65   2.243       .  S
In56         O68   2.245       .  S
C57          O63   1.258       .  A
C57          O65   1.257       .  A
C57         C388   1.431       .  S
O58          C66   1.259       .  A
O59          C66   1.257       .  A
C60          O67   1.258       .  A
C60          O61   1.260       .  A
C60         C376   1.432       .  S
C62          O64   1.256       .  A
C62          O68   1.259       .  A
C62          C79   1.455       .  S
C66         C211   1.457       .  S
In69         O71   2.235       .  S
In69         O72   2.237       .  S
In69         O80   2.235       .  S
In69         O74   2.238       .  S
In69         O76   2.234       .  S
In69         O77   2.239       .  S
In69         O78   2.229       .  S
In69         O81   2.235       .  S
C70          O76   1.260       .  A
C70          O78   1.259       .  A
C70         C368   1.426       .  S
O71          C79   1.257       .  A
O72          C79   1.260       .  A
C73          O80   1.259       .  A
C73          O74   1.258       .  A
C73         C361   1.427       .  S
C75          O77   1.260       .  A
C75          O81   1.258       .  A
C75         C198   1.456       .  S
In82         O84   2.233       .  S
In82         O85   2.249       .  S
In82         O93   2.232       .  S
In82         O87   2.244       .  S
In82         O89   2.249       .  S
In82         O90   2.249       .  S
In82         O91   2.252       .  S
In82         O94   2.252       .  S
C83          O89   1.259       .  A
C83          O91   1.259       .  A
C83         C360   1.436       .  S
O84          C92   1.257       .  A
O85          C92   1.261       .  A
C86          O93   1.258       .  A
C86          O87   1.261       .  A
C86         C353   1.429       .  S
C88          O90   1.258       .  A
C88          O94   1.258       .  A
C92         C176   1.458       .  S
C95         C356   1.440       .  S
C95          C96   1.406       .  A
C95         C100   1.397       .  A
C96         C364   1.437       .  S
C96          C97   1.398       .  A
C97          C98   1.398       .  A
C97         H102   1.089       .  S
C98         C349   1.442       .  S
C98          C99   1.408       .  A
C99         C348   1.435       .  S
C99         C100   1.398       .  A
C100        H101   1.088       .  S
In103       O105   2.235       .  S
In103       O106   2.237       .  S
In103       O114   2.232       .  S
In103       O108   2.245       .  S
In103       O110   2.230   1_565  S
In103       O111   2.244   1_565  S
In103       O112   2.233   1_565  S
In103       O115   2.240       .  S
C104        O110   1.260       .  A
C104        O112   1.259       .  A
C104        C345   1.426       .  S
O105        C113   1.257       .  A
O106        C113   1.259       .  A
C107        O114   1.258       .  A
C107        O108   1.259       .  A
C107        C344   1.428       .  S
C109        O111   1.259       .  A
C109        O115   1.257   1_545  A
C113        C159   1.454       .  S
In116       O118   2.252       .  S
In116       O119   2.248       .  S
In116       O127   2.248   1_565  S
In116       O121   2.237   1_565  S
In116       O123   2.247       .  S
In116       O124   2.258   1_565  S
In116       O125   2.238       .  S
In116       O128   2.240       .  S
C117        O123   1.260       .  A
C117        O125   1.260       .  A
C117        C337   1.433       .  S
O118        C126   1.259       .  A
O119        C126   1.260       .  A
C120        O127   1.260       .  A
C120        O121   1.258       .  A
C120        C352   1.432       .  S
C122        O124   1.261       .  A
C122        O128   1.258   1_545  A
C126        C189   1.465       .  S
C129        C357   1.446       .  S
C129        C130   1.408       .  A
C129        C134   1.400       .  A
C130        C365   1.435       .  S
C130        C131   1.398       .  A
C131        C132   1.396       .  A
C131        H136   1.089       .  S
C132        C340   1.443       .  S
C132        C133   1.407       .  A
C133        C341   1.437       .  S
C133        C134   1.401       .  A
C134        H135   1.089       .  S
C137        C333   1.443       .  S
C137        C138   1.407       .  A
C137        C142   1.397       .  A
C138        C329   1.433       .  S
C138        C139   1.398       .  A
C139        C140   1.396       .  A
C139        H144   1.089       .  S
C140        C324   1.441       .  S
C140        C141   1.407       .  A
C141        C325   1.435       .  S
C141        C142   1.399       .  A
C142        H143   1.089       .  S
C145        C320   1.442       .  S
C145        C146   1.407       .  A
C145        C150   1.398       .  A
C146        C313   1.438       .  S
C146        C147   1.398       .  A
C147        C148   1.398   1_655  A
C147        H152   1.089       .  S
C148        C308   1.440       .  S
C148        C149   1.408       .  A
C149        C312   1.440       .  S
C149        C150   1.399   1_455  A
C150        H151   1.089       .  S
In153       O155   2.244       .  S
In153       O156   2.236       .  S
In153       O164   2.236       .  S
In153       O158   2.238       .  S
In153       O160   2.236       .  S
In153       O161   2.233       .  S
In153       O162   2.237       .  S
In153       O165   2.243       .  S
C154        O160   1.258       .  A
C154        O162   1.258       .  A
C154        C328   1.426       .  S
O155        C163   1.260       .  A
O156        C163   1.257       .  A
C157        O164   1.259       .  A
C157        O158   1.260       .  A
C157        C309   1.430       .  S
C159        O161   1.257       .  A
C159        O165   1.259       .  A
C163        C245   1.457       .  S
In166       O168   2.242       .  S
In166       O169   2.241       .  S
In166       O177   2.240       .  S
In166       O171   2.233       .  S
In166       O173   2.242       .  S
In166       O174   2.240       .  S
In166       O175   2.238       .  S
In166       O178   2.255       .  S
C167        O173   1.259       .  A
C167        O175   1.259       .  A
C167        C321   1.431       .  S
O168        C176   1.257       .  A
O169        C176   1.260       .  A
C170        O177   1.260       .  A
C170        O171   1.260       .  A
C170        C305   1.430       .  S
C172        O174   1.258       .  A
C172        O178   1.260       .  A
C172        C224   1.462       .  S
In179       O181   2.243       .  S
In179       O182   2.256       .  S
In179       O190   2.240       .  S
In179       O184   2.251       .  S
In179       O186   2.240       .  S
In179       O187   2.244       .  S
In179       O188   2.248       .  S
In179       O191   2.254       .  S
C180        O186   1.259       .  A
C180        O188   1.260       .  A
C180        C336   1.434       .  S
O181        C189   1.258       .  A
O182        C189   1.260       .  A
C183        O190   1.258       .  A
C183        O184   1.259       .  A
C183        C317   1.432       .  S
C185        O187   1.258       .  A
C185        O191   1.258       .  A
C185        C258   1.462       .  S
In192       O194   2.232       .  S
In192       O195   2.240       .  S
In192       O203   2.235       .  S
In192       O197   2.237       .  S
In192       O199   2.230       .  S
In192       O200   2.239       .  S
In192       O201   2.231       .  S
In192       O204   2.236       .  S
C193        O199   1.259       .  A
C193        O201   1.259       .  A
C193        C332   1.424       .  S
O194        C202   1.257       .  A
O195        C202   1.260       .  A
C196        O203   1.259       .  A
C196        O197   1.259       .  A
C196        C316   1.428       .  S
C198        O200   1.259       .  A
C198        O204   1.258       .  A
C202        C215   1.455       .  S
In205       O216   2.240       .  S
In205       O210   2.237       .  S
In205       O213   2.240       .  S
In205       O217   2.243       .  S
In205       O607   2.246       .  S
In205       O608   2.239       .  S
In205       O612   2.243       .  S
In205       O614   2.237       .  S
C206        O212   1.258       .  A
C206        O214   1.256       .  A
C206        C300   1.424       .  S
O207       In605   2.239       .  S
O207        C215   1.259       .  A
O208       In605   2.236       .  S
O208        C215   1.257       .  A
C209        O216   1.260       .  A
C209        O210   1.259       .  A
C209        C304   1.429       .  S
C211        O213   1.259       .  A
C211        O217   1.258       .  A
O212       In605   2.242       .  S
O214       In605   2.231       .  S
In218       O225   2.240       .  S
In218       O226   2.244       .  S
In218       O227   2.248       .  S
In218       O230   2.251       .  S
In218       O620   2.240   1_554  S
In218       O621   2.256       .  S
In218       O629   2.239   1_554  S
In218       O623   2.244       .  S
C219        O225   1.258       .  A
C219        O227   1.259       .  A
C219        C289   1.432       .  S
O220       In618   2.251       .  S
O220        C228   1.258       .  A
O221       In618   2.252       .  S
O221        C228   1.260       .  A
C222        O229   1.260       .  A
C222        O223   1.260       .  A
C222        C296   1.433       .  S
O223       In618   2.240       .  S
C224        O226   1.259       .  A
C224        O230   1.259       .  A
O229       In618   2.244       .  S
C231        C292   1.441       .  S
C231        C232   1.406   1_455  A
C231        C236   1.395       .  A
C232        C297   1.433       .  S
C232        C233   1.398       .  A
C233        C234   1.397       .  A
C233        H238   1.089       .  S
C234        C285   1.443       .  S
C234        C235   1.407   1_655  A
C235        C281   1.432       .  S
C235        C236   1.397       .  A
C236        H237   1.089       .  S
In239       O250   2.228   1_566  S
In239       O244   2.227   1_565  S
In239       O247   2.243   1_556  S
In239       O251   2.240   1_556  S
In239       O641   2.248   1_565  S
In239       O642   2.237       .  S
In239       O646   2.230       .  S
In239       O648   2.232       .  S
C240        O246   1.259       .  A
C240        O248   1.259       .  A
C240        C277   1.426       .  S
O241       In639   2.249   1_545  S
O241        C249   1.259       .  A
O242       In639   2.242       .  S
O242        C249   1.256   1_565  A
C243        O250   1.260       .  A
C243        O244   1.259   1_554  A
C243        C284   1.423       .  S
C245        O247   1.260       .  A
C245        O251   1.257       .  A
O246       In639   2.235       .  S
O248       In639   2.234       .  S
In252       O259   2.246   1_565  S
In252       O260   2.238   1_556  S
In252       O261   2.246   1_566  S
In252       O264   2.255       .  S
In252       O654   2.244       .  S
In252       O655   2.254   1_565  S
In252       O663   2.242       .  S
In252       O657   2.241       .  S
C253        O259   1.259       .  A
C253        O261   1.259   1_556  A
C253        C288   1.434   1_556  S
O254       In652   2.249       .  S
O254        C262   1.258   1_565  A
O255       In652   2.242   1_545  S
O255        C262   1.259       .  A
C256        O263   1.258       .  A
C256        O257   1.259       .  A
C256        C276   1.433       .  S
O257       In652   2.247       .  S
C258        O260   1.257       .  A
C258        O264   1.260   1_554  A
O263       In652   2.243       .  S
C265        C301   1.438       .  S
C265        C266   1.408   1_655  A
C265        C270   1.400       .  A
C266        C293   1.442       .  S
C266        C267   1.398       .  A
C267        C268   1.398       .  A
C267        H272   1.088       .  S
C268        C280   1.436       .  S
C268        C269   1.406   1_455  A
C269        C273   1.442       .  S
C269        C270   1.397       .  A
C270        H271   1.089       .  S
C273        C274   1.204       .  T
C274        C275   1.409       .  S
C275        C276   1.204       .  T
C277        C278   1.200       .  T
C278        C279   1.403       .  S
C279        C280   1.200       .  T
C281        C282   1.198       .  T
C282        C283   1.400       .  S
C283        C284   1.198       .  T
C285        C286   1.205       .  T
C286        C287   1.410       .  S
C287        C288   1.205       .  T
C289        C290   1.203       .  T
C290        C291   1.408       .  S
C291        C292   1.203       .  T
C293        C294   1.204       .  T
C294        C295   1.409       .  S
C295        C296   1.204       .  T
C297        C298   1.199       .  T
C298        C299   1.401       .  S
C299        C300   1.199       .  T
C301        C302   1.202       .  T
C302        C303   1.406       .  S
C303        C304   1.202       .  T
C305        C306   1.202       .  T
C306        C307   1.407       .  S
C307        C308   1.203       .  T
C309        C310   1.202       .  T
C310        C311   1.407       .  S
C311        C312   1.203       .  T
C313        C314   1.201       .  T
C314        C315   1.405       .  S
C315        C316   1.201       .  T
C317        C318   1.204       .  T
C318        C319   1.409       .  S
C319        C320   1.204       .  T
C321        C322   1.203       .  T
C322        C323   1.408       .  S
C323        C324   1.204       .  T
C325        C326   1.200       .  T
C326        C327   1.403       .  S
C327        C328   1.200       .  T
C329        C330   1.199       .  T
C330        C331   1.401       .  S
C331        C332   1.199       .  T
C333        C334   1.205       .  T
C334        C335   1.410       .  S
C335        C336   1.205       .  T
C337        C338   1.204       .  T
C338        C339   1.410       .  S
C339        C340   1.205       .  T
C341        C342   1.201       .  T
C342        C343   1.405       .  S
C343        C344   1.201       .  T
C345        C346   1.200       .  T
C346        C347   1.403       .  S
C347        C348   1.200       .  T
C349        C350   1.204       .  T
C350        C351   1.409       .  S
C351        C352   1.204       .  T
C353        C354   1.202       .  T
C354        C355   1.406       .  S
C355        C356   1.202       .  T
C357        C358   1.206       .  T
C358        C359   1.413       .  S
C359        C360   1.206       .  T
C361        C362   1.201       .  T
C362        C363   1.404       .  S
C363        C364   1.201       .  T
C365        C366   1.200       .  T
C366        C367   1.403       .  S
C367        C368   1.200       .  T
C369        C370   1.204       .  T
C370        C371   1.409       .  S
C371        C372   1.204       .  T
C373        C374   1.204       .  T
C374        C375   1.409       .  S
C375        C376   1.204       .  T
C377        C378   1.204       .  T
C378        C379   1.409       .  S
C379        C380   1.204       .  T
C381        C382   1.200       .  T
C382        C383   1.402       .  S
C383        C384   1.200       .  T
C385        C386   1.203       .  T
C386        C387   1.408       .  S
C387        C388   1.203       .  T
C389        C390   1.205       .  T
C390        C391   1.410       .  S
C391        C392   1.205       .  T
C393        C394   1.206       .  T
C394        C395   1.412       .  S
C395        C396   1.206       .  T
C397        C398   1.204       .  T
C398        C399   1.408       .  S
C399        C400   1.204       .  T
In401       O403   2.251       .  S
In401       O404   2.250       .  S
In401       O412   2.240       .  S
In401       O406   2.239       .  S
In401       O408   2.242       .  S
In401       O409   2.251       .  S
In401       O410   2.238       .  S
In401       O413   2.255       .  S
C402        O408   1.260       .  A
C402        O410   1.260       .  A
C402        C797   1.431       .  S
O403        C411   1.257       .  A
O404        C411   1.259       .  A
C405        O412   1.260       .  A
C405        O406   1.260       .  A
C405        C793   1.432       .  S
C407        O409   1.259       .  A
C407        O413   1.257       .  A
C407        C488   1.465       .  S
C411        C628   1.462       .  S
C414        C796   1.442       .  S
C414        C415   1.407       .  A
C414        C419   1.398       .  A
C415        C784   1.440       .  S
C415        C416   1.400       .  A
C416        C417   1.400       .  A
C416        H421   1.088       .  S
C417        C792   1.444       .  S
C417        C418   1.409       .  A
C418        C785   1.439       .  S
C418        C419   1.399       .  A
C419        H420   1.089       .  S
C422        C772   1.434       .  S
C422        C423   1.407       .  A
C422        C427   1.396       .  A
C423        C800   1.440       .  S
C423        C424   1.398       .  A
C424        C425   1.398   1_455  A
C424        H429   1.090       .  S
C425        C773   1.437       .  S
C425        C426   1.406       .  A
C426        C777   1.437       .  S
C426        C427   1.395   1_655  A
C427        H428   1.088       .  S
In430       O432   2.246       .  S
In430       O433   2.246       .  S
In430       O441   2.233       .  S
In430       O435   2.231       .  S
In430       O437   2.241       .  S
In430       O438   2.239       .  S
In430       O439   2.234       .  S
In430       O442   2.246       .  S
C431        O437   1.260       .  A
C431        O439   1.259       .  A
C431        C781   1.430       .  S
O432        C440   1.257       .  A
O433        C440   1.258       .  A
C434        O441   1.259       .  A
C434        O435   1.259       .  A
C434        C769   1.425       .  S
C436        O438   1.259       .  A
C436        O442   1.258       .  A
C436        C509   1.459       .  S
C440        C649   1.458       .  S
In443       O445   2.247       .  S
In443       O446   2.248       .  S
In443       O454   2.236       .  S
In443       O448   2.254       .  S
In443       O450   2.235       .  S
In443       O451   2.244       .  S
In443       O452   2.237       .  S
In443       O455   2.247       .  S
C444        O450   1.259       .  A
C444        O452   1.259       .  A
C444        C780   1.427       .  S
O445        C453   1.258       .  A
O446        C453   1.260       .  A
C447        O454   1.259       .  A
C447        O448   1.260       .  A
C447        C789   1.434       .  S
C449        O451   1.257       .  A
C449        O455   1.259       .  A
C449        C522   1.460       .  S
C453        C662   1.463       .  S
In456       O458   2.248       .  S
In456       O459   2.240       .  S
In456       O467   2.235       .  S
In456       O461   2.235       .  S
In456       O463   2.231       .  S
In456       O464   2.242       .  S
In456       O465   2.241       .  S
In456       O468   2.246       .  S
C457        O463   1.260       .  A
C457        O465   1.260       .  A
C457        C788   1.430       .  S
O458        C466   1.259       .  A
O459        C466   1.257       .  A
C460        O467   1.259       .  A
C460        O461   1.259       .  A
C460        C776   1.427       .  S
C462        O464   1.257       .  A
C462        O468   1.259       .  A
C462        C479   1.458       .  S
C466        C611   1.459       .  S
In469       O471   2.236       .  S
In469       O472   2.248       .  S
In469       O480   2.241       .  S
In469       O474   2.246       .  S
In469       O476   2.243       .  S
In469       O477   2.243       .  S
In469       O478   2.242       .  S
In469       O481   2.243       .  S
C470        O476   1.260       .  A
C470        O478   1.259       .  A
C470        C768   1.432       .  S
O471        C479   1.257       .  A
O472        C479   1.260       .  A
C473        O480   1.258       .  A
C473        O474   1.259       .  A
C473        C761   1.432       .  S
C475        O477   1.260       .  A
C475        O481   1.258       .  A
C475        C598   1.459       .  S
In482       O484   2.237       .  S
In482       O485   2.254       .  S
In482       O493   2.241       .  S
In482       O487   2.241       .  S
In482       O489   2.246       .  S
In482       O490   2.245       .  S
In482       O491   2.251       .  S
In482       O494   2.258       .  S
C483        O489   1.257       .  A
C483        O491   1.258       .  A
C483        C760   1.434       .  S
O484        C492   1.257       .  A
O485        C492   1.261       .  A
C486        O493   1.259       .  A
C486        O487   1.260       .  A
C486        C753   1.432       .  S
C488        O490   1.258       .  A
C488        O494   1.260       .  A
C492        C576   1.461       .  S
C495        C756   1.440       .  S
C495        C496   1.408       .  A
C495        C500   1.400       .  A
C496        C764   1.441       .  S
C496        C497   1.398       .  A
C497        C498   1.398       .  A
C497        H502   1.089       .  S
C498        C749   1.439       .  S
C498        C499   1.406       .  A
C499        C748   1.440       .  S
C499        C500   1.399       .  A
C500        H501   1.088       .  S
In503       O505   2.238       .  S
In503       O506   2.249       .  S
In503       O514   2.237       .  S
In503       O508   2.241       .  S
In503       O510   2.240   1_565  S
In503       O511   2.256   1_565  S
In503       O512   2.237   1_565  S
In503       O515   2.236   1_565  S
C504        O510   1.259       .  A
C504        O512   1.259       .  A
C504        C745   1.429       .  S
O505        C513   1.257       .  A
O506        C513   1.260       .  A
C507        O514   1.259       .  A
C507        O508   1.260       .  A
C507        C744   1.431       .  S
C509        O511   1.259       .  A
C509        O515   1.256       .  A
C513        C559   1.459       .  S
In516       O518   2.242       .  S
In516       O519   2.251       .  S
In516       O527   2.240   1_565  S
In516       O521   2.241   1_565  S
In516       O523   2.244       .  S
In516       O524   2.249   1_565  S
In516       O525   2.241       .  S
In516       O528   2.240       .  S
C517        O523   1.259       .  A
C517        O525   1.259       .  A
C517        C737   1.431       .  S
O518        C526   1.258       .  A
O519        C526   1.261       .  A
C520        O527   1.258       .  A
C520        O521   1.258       .  A
C520        C752   1.429       .  S
C522        O524   1.260       .  A
C522        O528   1.258   1_545  A
C526        C589   1.462       .  S
C529        C757   1.443       .  S
C529        C530   1.409       .  A
C529        C534   1.401       .  A
C530        C765   1.441       .  S
C530        C531   1.398       .  A
C531        C532   1.397       .  A
C531        H536   1.089       .  S
C532        C740   1.441       .  S
C532        C533   1.407       .  A
C533        C741   1.441       .  S
C533        C534   1.400       .  A
C534        H535   1.088       .  S
C537        C733   1.440       .  S
C537        C538   1.408       .  A
C537        C542   1.397       .  A
C538        C729   1.440       .  S
C538        C539   1.399       .  A
C539        C540   1.399       .  A
C539        H544   1.089       .  S
C540        C724   1.440       .  S
C540        C541   1.407       .  A
C541        C725   1.439       .  S
C541        C542   1.397       .  A
C542        H543   1.090       .  S
C545        C720   1.440       .  S
C545        C546   1.407       .  A
C545        C550   1.397       .  A
C546        C713   1.437       .  S
C546        C547   1.398       .  A
C547        C548   1.397   1_655  A
C547        H552   1.089   1_655  S
C548        C708   1.440       .  S
C548        C549   1.406       .  A
C549        C712   1.436       .  S
C549        C550   1.397   1_455  A
C550        H551   1.089       .  S
In553       O555   2.245       .  S
In553       O556   2.255       .  S
In553       O564   2.233       .  S
In553       O558   2.231       .  S
In553       O560   2.234       .  S
In553       O561   2.243       .  S
In553       O562   2.242       .  S
In553       O565   2.243       .  S
C554        O560   1.258       .  A
C554        O562   1.260       .  A
C554        C728   1.429       .  S
O555        C563   1.258       .  A
O556        C563   1.258       .  A
C557        O564   1.260       .  A
C557        O558   1.260       .  A
C557        C709   1.426       .  S
C559        O561   1.257       .  A
C559        O565   1.259       .  A
C563        C645   1.463       .  S
In566       O568   2.251       .  S
In566       O569   2.245       .  S
In566       O577   2.240       .  S
In566       O571   2.246       .  S
In566       O573   2.247       .  S
In566       O574   2.250       .  S
In566       O575   2.231       .  S
In566       O578   2.258       .  S
C567        O573   1.261       .  A
C567        O575   1.259       .  A
C567        C721   1.431       .  S
O568        C576   1.257       .  A
O569        C576   1.259       .  A
C570        O577   1.258       .  A
C570        O571   1.258       .  A
C570        C705   1.430       .  S
C572        O574   1.257       .  A
C572        O578   1.259       .  A
C572        C624   1.465       .  S
In579       O581   2.243       .  S
In579       O582   2.252       .  S
In579       O590   2.233       .  S
In579       O584   2.242       .  S
In579       O586   2.237       .  S
In579       O587   2.249       .  S
In579       O588   2.244       .  S
In579       O591   2.246       .  S
C580        O586   1.259       .  A
C580        O588   1.260       .  A
C580        C736   1.430       .  S
O581        C589   1.257       .  A
O582        C589   1.260       .  A
C583        O590   1.259       .  A
C583        O584   1.260       .  A
C583        C717   1.430       .  S
C585        O587   1.259       .  A
C585        O591   1.258       .  A
C585        C658   1.461       .  S
In592       O594   2.238       .  S
In592       O595   2.245       .  S
In592       O603   2.237       .  S
In592       O597   2.233       .  S
In592       O599   2.243       .  S
In592       O600   2.249       .  S
In592       O601   2.237       .  S
In592       O604   2.237       .  S
C593        O599   1.259       .  A
C593        O601   1.259       .  A
C593        C732   1.431       .  S
O594        C602   1.257       .  A
O595        C602   1.260       .  A
C596        O603   1.259       .  A
C596        O597   1.259       .  A
C596        C716   1.427       .  S
C598        O600   1.260       .  A
C598        O604   1.258       .  A
C602        C615   1.459       .  S
In605       O616   2.228   1_554  S
In605       O610   2.238       .  S
In605       O613   2.244   1_554  S
In605       O617   2.240   1_554  S
C606        O612   1.259       .  A
C606        O614   1.258       .  A
C606        C700   1.430       .  S
O607        C615   1.260       .  A
O608        C615   1.257       .  A
C609        O616   1.259       .  A
C609        O610   1.261   1_556  A
C609        C704   1.427       .  S
C611        O613   1.260       .  A
C611        O617   1.258       .  A
In618       O625   2.248       .  S
In618       O626   2.257       .  S
In618       O627   2.245       .  S
In618       O630   2.251       .  S
C619        O625   1.260       .  A
C619        O627   1.259       .  A
C619        C689   1.435       .  S
O620        C628   1.257       .  A
O621        C628   1.260   1_554  A
C622        O629   1.259   1_554  A
C622        O623   1.260       .  A
C622        C696   1.433       .  S
C624        O626   1.260       .  A
C624        O630   1.257       .  A
C631        C692   1.445       .  S
C631        C632   1.409   1_455  A
C631        C636   1.400       .  A
C632        C697   1.439       .  S
C632        C633   1.400       .  A
C633        C634   1.398       .  A
C633        H638   1.090       .  S
C634        C685   1.445       .  S
C634        C635   1.408   1_655  A
C635        C681   1.440       .  S
C635        C636   1.401       .  A
C636        H637   1.088       .  S
In639       O650   2.235   1_565  S
In639       O644   2.240   1_565  S
In639       O647   2.261       .  S
In639       O651   2.241       .  S
C640        O646   1.259       .  A
C640        O648   1.260       .  A
C640        C677   1.426       .  S
O641        C649   1.259       .  A
O642        C649   1.257   1_565  A
C643        O650   1.260       .  A
C643        O644   1.260       .  A
C643        C684   1.430       .  S
C645        O647   1.260       .  A
C645        O651   1.257       .  A
In652       O659   2.252   1_565  S
In652       O660   2.244       .  S
In652       O661   2.241   1_565  S
In652       O664   2.250       .  S
C653        O659   1.261       .  A
C653        O661   1.259       .  A
C653        C688   1.436       .  S
O654        C662   1.257   1_565  A
O655        C662   1.260       .  A
C656        O663   1.259       .  A
C656        O657   1.259       .  A
C656        C676   1.432       .  S
C658        O660   1.258       .  A
C658        O664   1.259       .  A
C665        C701   1.437       .  S
C665        C666   1.408   1_655  A
C665        C670   1.399       .  A
C666        C693   1.442       .  S
C666        C667   1.397       .  A
C667        C668   1.398       .  A
C667        H672   1.088       .  S
C668        C680   1.436       .  S
C668        C669   1.407   1_455  A
C669        C673   1.441       .  S
C669        C670   1.397       .  A
C670        H671   1.089       .  S
C673        C674   1.204       .  T
C674        C675   1.408       .  S
C675        C676   1.204       .  T
C677        C678   1.200       .  T
C678        C679   1.403       .  S
C679        C680   1.200       .  T
C681        C682   1.203       .  T
C682        C683   1.407       .  S
C683        C684   1.203       .  T
C685        C686   1.206       .  T
C686        C687   1.412       .  S
C687        C688   1.206       .  T
C689        C690   1.206       .  T
C690        C691   1.412       .  S
C691        C692   1.206       .  T
C693        C694   1.204       .  T
C694        C695   1.409       .  S
C695        C696   1.204   1_556  T
C697        C698   1.203       .  T
C698        C699   1.407       .  S
C699        C700   1.202       .  T
C701        C702   1.201       .  T
C702        C703   1.404       .  S
C703        C704   1.201       .  T
C705        C706   1.203       .  T
C706        C707   1.407       .  S
C707        C708   1.203       .  T
C709        C710   1.200       .  T
C710        C711   1.403       .  S
C711        C712   1.200       .  T
C713        C714   1.201       .  T
C714        C715   1.404       .  S
C715        C716   1.201       .  T
C717        C718   1.203       .  T
C718        C719   1.407       .  S
C719        C720   1.203       .  T
C721        C722   1.203       .  T
C722        C723   1.408       .  S
C723        C724   1.203       .  T
C725        C726   1.202       .  T
C726        C727   1.406       .  S
C727        C728   1.202       .  T
C729        C730   1.203       .  T
C730        C731   1.408       .  S
C731        C732   1.203       .  T
C733        C734   1.203       .  T
C734        C735   1.407       .  S
C735        C736   1.203       .  T
C737        C738   1.203       .  T
C738        C739   1.408       .  S
C739        C740   1.203       .  T
C741        C742   1.204       .  T
C742        C743   1.408       .  S
C743        C744   1.203       .  T
C745        C746   1.202       .  T
C746        C747   1.406       .  S
C747        C748   1.202       .  T
C749        C750   1.202       .  T
C750        C751   1.406       .  S
C751        C752   1.202       .  T
C753        C754   1.203       .  T
C754        C755   1.408       .  S
C755        C756   1.203       .  T
C757        C758   1.205       .  T
C758        C759   1.411       .  S
C759        C760   1.205       .  T
C761        C762   1.203       .  T
C762        C763   1.408       .  S
C763        C764   1.203       .  T
C765        C766   1.204       .  T
C766        C767   1.409       .  S
C767        C768   1.204       .  T
C769        C770   1.199       .  T
C770        C771   1.402       .  S
C771        C772   1.199       .  T
C773        C774   1.201       .  T
C774        C775   1.404       .  S
C775        C776   1.201       .  T
C777        C778   1.201       .  T
C778        C779   1.404       .  S
C779        C780   1.201       .  T
C781        C782   1.202       .  T
C782        C783   1.407       .  S
C783        C784   1.203       .  T
C785        C786   1.202       .  T
C786        C787   1.406       .  S
C787        C788   1.202       .  T
C789        C790   1.205       .  T
C790        C791   1.411       .  S
C791        C792   1.205       .  T
C793        C794   1.204       .  T
C794        C795   1.409       .  S
C795        C796   1.204       .  T
C797        C798   1.203       .  T
C798        C799   1.408       .  S
C799        C800   1.203       .  T
