geometry optimzed in LAMMPS
_audit_creation_date              2020-11-30 
_audit_creation_method            'lammps2cif' 
_symmetry_space_group_name_H-M    'P1' 
_symmetry_Int_Tables_number       1 
_symmetry_cell_setting            triclinic 
loop_ 
_symmetry_equiv_pos_as_xyz 
  x,y,z 
_cell_length_a                    46.227527 
_cell_length_b                    46.31183392872715 
_cell_length_c                    46.26267913597986 
_cell_angle_alpha                 89.76983369756495 
_cell_angle_beta                  89.93394008060093 
_cell_angle_gamma                 89.88552907320049 
loop_ 
_atom_site_label 
_atom_site_type_symbol 
_atom_site_fract_x 
_atom_site_fract_y 
_atom_site_fract_z 
_atom_site_charge 
Zr1        Zr  0.43177112  0.16820062  0.23205598     2.17500
O2          O  0.43244724  0.22048791  0.23817723    -0.51600
O3          O  0.38887185  0.16150827  0.26154067    -0.74800
O4          O  0.39392043  0.19175150  0.20478990    -0.81600
O5          O  0.49727203  0.16436678  0.28157678    -0.83400
O6          O  0.38290104  0.16568999  0.16482416    -0.79000
O7          O  0.45482018  0.18846212  0.27469758    -0.90600
O8          O  0.38158462  0.11352270  0.26812348    -0.76600
O9          O  0.40425449  0.12756798  0.21732614    -0.86100
O10         O  0.44912325  0.12889643  0.26038260    -0.85800
O11         O  0.44079355  0.16371797  0.18102969    -0.72500
O12         O  0.48226367  0.16469691  0.22064386    -0.84700
Zr13       Zr  0.48082740  0.07808801  0.18245689     2.26400
Zr14       Zr  0.41317753  0.12201931  0.16666495     2.06300
Zr15       Zr  0.49916242  0.12409957  0.24790645     2.10000
Zr16       Zr  0.42191432  0.08835974  0.24546529     1.78800
O17         O  0.54673345  0.14634461  0.25077258    -0.93500
O18         O  0.37933476  0.05949855  0.23447932    -0.41300
O19         O  0.47212726  0.08274332  0.23345055    -0.77900
O20         O  0.43039935  0.08185485  0.19488321    -0.96600
O21         O  0.46334267  0.11778440  0.15489064    -0.89900
O22         O  0.50855130  0.11870966  0.19731926    -0.92700
C23         C  0.37394949  0.14004936  0.27078441     1.01000
C24         C  0.47884757  0.18418212  0.28800992     1.14000
C25         C  0.37983908  0.18791838  0.18125470     1.04700
O26         O  0.36314828  0.10588224  0.16954486    -0.94900
O27         O  0.41163046  0.07768233  0.13730269    -0.90600
O28         O  0.45270747  0.05225665  0.14699706    -0.83800
C29         C  0.42820979  0.05541451  0.13434629     1.11400
O30         O  0.49774053  0.21049983  0.17243501    -0.96900
Zr31       Zr  0.49084565  0.15837606  0.16997275     1.88900
O32         O  0.50734219  0.08514689  0.13725596    -0.73500
O33         O  0.40963147  0.13485407  0.11570019    -0.52800
O34         O  0.47326959  0.18240460  0.12641509    -0.97400
O35         O  0.54126733  0.17283817  0.17525748    -0.54700
O36         O  0.51483058  0.13325927  0.13085792    -0.74000
C37         C  0.51713343  0.10687742  0.12288013     0.98300
O38         O  0.48415023  0.02562342  0.18798044    -0.62800
O39         O  0.50304555  0.10167490  0.29549239    -0.57600
O40         O  0.52647687  0.06039425  0.20177944    -0.94300
O41         O  0.53325445  0.08420640  0.24417348    -0.92800
O42         O  0.43104576  0.08006298  0.29669277    -0.93100
O43         O  0.42728546  0.03702038  0.25575421    -0.91900
C44         C  0.54001148  0.06476281  0.22559294     1.17200
H45         H  0.44649909  0.13235660  0.28079033     0.33100
H46         H  0.42026237  0.06438171  0.18985346     0.44000
H47         H  0.52891643  0.11591989  0.19356336     0.37500
H48         H  0.43474853  0.18083349  0.17074491     0.34000
H49         H  0.36730264  0.06017509  0.25218846     0.25800
H50         H  0.38882641  0.13279670  0.11108624     0.31700
H51         H  0.46802133  0.16650697  0.11318805     0.37600
H52         H  0.41224664  0.07345748  0.30454529     0.32100
H53         H  0.49484972  0.08210307  0.29300644     0.30900
H54         H  0.55508355  0.13885259  0.26902498     0.32600
H55         H  0.55284353  0.15624613  0.16833191     0.31600
H56         H  0.44093965  0.02998037  0.24084755     0.35600
H57         H  0.49005778  0.02220814  0.20827808     0.28300
H58         H  0.41305194  0.22563414  0.24571694     0.32500
H59         H  0.50881422  0.21577059  0.15485491     0.35400
H60         H  0.52399909  0.09839174  0.29851710     0.28000
H61         H  0.46392513  0.01866947  0.18767140     0.40900
H62         H  0.35478092  0.11646482  0.18614210     0.30900
H63         H  0.36846469  0.07112494  0.22013390     0.38600
H64         H  0.54459135  0.17324393  0.19639003     0.30400
H65         H  0.41318279  0.15591515  0.11502598     0.30500
H66         H  0.43310214  0.22871950  0.21839883     0.30700
Zr67       Zr  0.08146406  0.18289915  0.48043523     2.17500
O68         O  0.02937373  0.18649510  0.48814669    -0.51600
O69         O  0.08911685  0.13809878  0.50733181    -0.74800
O70         O  0.05619044  0.14663865  0.45339371    -0.81600
O71         O  0.08525557  0.24732258  0.52972167    -0.83400
O72         O  0.08304568  0.13364671  0.41436914    -0.79000
O73         O  0.06268296  0.20400431  0.52483934    -0.90600
O74         O  0.13742914  0.13136782  0.51316089    -0.76600
O75         O  0.12170187  0.15556380  0.46374485    -0.86100
O76         O  0.12165935  0.19929913  0.50776791    -0.85800
O77         O  0.08450526  0.19306445  0.42937926    -0.72500
O78         O  0.08478209  0.23351668  0.46967000    -0.84700
Zr79       Zr  0.17044265  0.23280063  0.42987114     2.26400
Zr80       Zr  0.12563042  0.16563409  0.41318485     2.06300
Zr81       Zr  0.12577086  0.24959636  0.49640296     2.10000
Zr82       Zr  0.16186280  0.17235091  0.49082755     1.78800
O83         O  0.10382966  0.29718883  0.50131047    -0.93500
O84         O  0.19149328  0.13042007  0.47912236    -0.41300
O85         O  0.16717541  0.22293841  0.48070577    -0.77900
O86         O  0.16690867  0.18195368  0.44017555    -0.96600
O87         O  0.13025710  0.21601252  0.40275832    -0.89900
O88         O  0.13001724  0.26010864  0.44597906    -0.92700
C89         C  0.11101723  0.12324293  0.51597222     1.01000
C90         C  0.06634212  0.22848650  0.53728910     1.14000
C91         C  0.06050275  0.13143649  0.43072062     1.04700
O92         O  0.14547819  0.11690354  0.41191719    -0.94900
O93         O  0.16694887  0.16688549  0.37981983    -0.90600
O94         O  0.19235793  0.20750762  0.39008620    -0.83800
C95         C  0.18827865  0.18430277  0.37565256     1.11400
O96         O  0.03768613  0.24847578  0.42395335    -0.96900
Zr97       Zr  0.08994051  0.24328993  0.41897200     1.88900
O98         O  0.16306275  0.26346010  0.38766344    -0.73500
O99         O  0.10790305  0.16342197  0.36368467    -0.52800
O100        O  0.06618934  0.22697421  0.37497398    -0.97400
O101        O  0.07545370  0.29356393  0.42507349    -0.54700
O102        O  0.11475780  0.26892939  0.38022610    -0.74000
C103        C  0.14131582  0.27292213  0.37312515     0.98300
O104        O  0.22317619  0.23425315  0.43300090    -0.62800
O105        O  0.14825573  0.25260088  0.54392524    -0.57600
O106        O  0.18987030  0.27696628  0.45055033    -0.94300
O107        O  0.16373794  0.28545568  0.49141049    -0.92800
O108        O  0.17154649  0.18027565  0.54191640    -0.93100
O109        O  0.21374163  0.17743888  0.49823486    -0.91900
C110        C  0.18396430  0.29161957  0.47333774     1.17200
H111        H  0.11873448  0.19607755  0.52821828     0.33100
H112        H  0.18417527  0.17210692  0.43373606     0.44000
H113        H  0.13282179  0.28048698  0.44257392     0.37500
H114        H  0.06716223  0.18711643  0.41948393     0.34000
H115        H  0.19596450  0.12134428  0.49802405     0.25800
H116        H  0.11153839  0.14325149  0.35762442     0.31700
H117        H  0.06276410  0.24479497  0.36358385     0.37600
H118        H  0.18090462  0.16219453  0.54858047     0.32100
H119        H  0.14391373  0.27240999  0.55065829     0.30900
H120        H  0.10599191  0.30211614  0.52200323     0.32600
H121        H  0.09266611  0.30519051  0.41993358     0.31600
H122        H  0.22080307  0.18710516  0.48046169     0.35600
H123        H  0.22742208  0.23665306  0.45383087     0.28300
H124        H  0.02305331  0.16689940  0.49397176     0.32500
H125        H  0.03141999  0.26056381  0.40739981     0.35400
H126        H  0.13649040  0.23995784  0.55660464     0.28000
H127        H  0.22979983  0.21435514  0.42885127     0.40900
H128        H  0.13911050  0.10791526  0.43029892     0.30900
H129        H  0.17799789  0.11679786  0.46975174     0.38600
H130        H  0.07334390  0.29598187  0.44622821     0.30400
H131        H  0.08660229  0.16489542  0.36533456     0.30500
H132        H  0.02103223  0.18954464  0.46866083     0.30700
Zr133      Zr  0.23411635  0.42915065  0.16133663     2.17500
O134        O  0.23869337  0.42811805  0.21387480    -0.51600
O135        O  0.26373348  0.38622819  0.15352139    -0.74800
O136        O  0.20869046  0.39261276  0.18834616    -0.81600
O137        O  0.28676227  0.49104435  0.14877091    -0.83400
O138        O  0.16676645  0.38104831  0.16579060    -0.79000
O139        O  0.27756076  0.45344164  0.17911141    -0.90600
O140        O  0.26373055  0.37550232  0.10562452    -0.76600
O141        O  0.21352551  0.40050661  0.12398768    -0.86100
O142        O  0.25934988  0.44182244  0.11834285    -0.85800
O143        O  0.18339248  0.44122161  0.16108781    -0.72500
O144        O  0.22573193  0.48006626  0.15545769    -0.84700
Zr145      Zr  0.17960608  0.47693256  0.07351352     2.26400
Zr146      Zr  0.16316319  0.41258733  0.12288144     2.06300
Zr147      Zr  0.25011506  0.49222077  0.11135233     2.10000
Zr148      Zr  0.23824557  0.41401834  0.08090890     1.78800
O149        O  0.25882872  0.54157376  0.12701540    -0.93500
O150        O  0.22112343  0.37043554  0.05711890    -0.41300
O151        O  0.22992148  0.46451443  0.07303109    -0.77900
O152        O  0.18793602  0.42584440  0.07900702    -0.96600
O153        O  0.15495515  0.46310149  0.11645636    -0.89900
O154        O  0.20004475  0.50548481  0.11077403    -0.92700
C155        C  0.27024299  0.37000254  0.13197822     1.01000
C156        C  0.29248667  0.47545970  0.17106787     1.14000
C157        C  0.18521931  0.37811079  0.18652294     1.04700
O158        O  0.15482139  0.36283382  0.10831048    -0.94900
O159        O  0.12772554  0.41276845  0.08308120    -0.90600
O160        O  0.13806244  0.45215072  0.05554597    -0.83800
C161        C  0.12299409  0.42972999  0.06137712     1.11400
O162        O  0.18633092  0.50073786  0.20425797    -0.96900
Zr163      Zr  0.17507948  0.49183297  0.15356878     1.88900
O164        O  0.13663153  0.50614388  0.08185838    -0.73500
O165        O  0.11588221  0.41705596  0.14571853    -0.52800
O166        O  0.13421228  0.48185433  0.18538317    -0.97400
O167        O  0.18175718  0.54364969  0.16035242    -0.54700
O168        O  0.13261758  0.51312671  0.13028008    -0.74000
C169        C  0.12317684  0.51554520  0.10424579     0.98300
O170        O  0.17870405  0.47584680  0.02075614    -0.62800
O171        O  0.29559942  0.49065554  0.08468063    -0.57600
O172        O  0.19987015  0.52061804  0.05173158    -0.94300
O173        O  0.24553909  0.52397656  0.06977649    -0.92800
O174        O  0.28794282  0.42063390  0.06469969    -0.93100
O175        O  0.24183793  0.41285866  0.02840990    -0.91900
C176        C  0.22519336  0.53203327  0.05267120     1.17200
H177        H  0.27977129  0.43772735  0.12021912     0.33100
H178        H  0.17998225  0.41553309  0.06276642     0.44000
H179        H  0.19754970  0.52580530  0.10691585     0.37500
H180        H  0.17463877  0.43613037  0.17935666     0.34000
H181        H  0.23786082  0.35705857  0.05726852     0.25800
H182        H  0.10667253  0.39800286  0.14280327     0.31700
H183        H  0.12375027  0.50047042  0.18691721     0.37600
H184        H  0.29395909  0.40144869  0.05744924     0.32100
H185        H  0.30681470  0.50727024  0.09201592     0.30900
H186        H  0.27817428  0.54645324  0.11920719     0.32600
H187        H  0.17233087  0.55306757  0.14356876     0.31600
H188        H  0.23180300  0.43061010  0.02185344     0.35600
H189        H  0.19886721  0.47975459  0.01467888     0.28300
H190        H  0.25821085  0.42029552  0.21804136     0.32500
H191        H  0.17432165  0.51751307  0.20993824     0.35400
H192        H  0.30599717  0.47350434  0.09218661     0.28000
H193        H  0.17578206  0.45531257  0.01564379     0.40900
H194        H  0.17290585  0.35251044  0.11338040     0.30900
H195        H  0.20722520  0.36183073  0.07095169     0.38600
H196        H  0.20271189  0.54691939  0.15738862     0.30400
H197        H  0.11996317  0.41782558  0.16670259     0.30500
H198        H  0.23932337  0.44858052  0.21995286     0.30700
Zr199      Zr  0.97976222  0.41825185  0.81826925     2.17500
O200        O  0.99502122  0.46850472  0.82256412    -0.51600
O201        O  0.00690912  0.41053025  0.86277924    -0.74800
O202        O  0.94869342  0.44621091  0.84956272    -0.81600
O203        O  0.02764662  0.41395181  0.75109462    -0.83400
O204        O  0.91037729  0.41892469  0.86386704    -0.79000
O205        O  0.02036843  0.43997911  0.79200084    -0.90600
O206        O  0.00944124  0.36258624  0.87281592    -0.76600
O207        O  0.96096793  0.37930727  0.84637015    -0.86100
O208        O  0.00735331  0.37695322  0.80505906    -0.85800
O209        O  0.92926765  0.41544448  0.80515660    -0.72500
O210        O  0.97147289  0.41302171  0.76736629    -0.84700
Zr211      Zr  0.93007135  0.32815115  0.76860088     2.26400
Zr212      Zr  0.91091567  0.37553303  0.83334741     2.06300
Zr213      Zr  0.99838171  0.37092302  0.75446687     2.10000
Zr214      Zr  0.98779645  0.33780688  0.83221614     1.78800
O215        O  0.00797143  0.38580244  0.70484546    -0.93500
O216        O  0.96904319  0.31086658  0.87354456    -0.41300
O217        O  0.98016253  0.33093723  0.78149410    -0.77900
O218        O  0.93790823  0.33323925  0.81975427    -0.96600
O219        O  0.90289059  0.36939924  0.78267430    -0.89900
O220        O  0.94867943  0.36711125  0.74074120    -0.92700
C221        C  0.01403866  0.38913250  0.87901467     1.01000
C222        C  0.03295016  0.43542761  0.76761696     1.14000
C223        C  0.92554120  0.44224029  0.86429500     1.04700
O224        O  0.90496669  0.35841393  0.88283739    -0.94900
O225        O  0.87800501  0.33378104  0.83294427    -0.90600
O226        O  0.88980075  0.30669927  0.79376633    -0.83800
C227        C  0.87465449  0.31162573  0.81645113     1.11400
O228        O  0.92732989  0.45922679  0.74289670    -0.96900
Zr229      Zr  0.92139219  0.40819364  0.75465654     1.88900
O230        O  0.88787668  0.33509696  0.73793585    -0.73500
O231        O  0.86187880  0.39472101  0.83133505    -0.52800
O232        O  0.87932523  0.43684916  0.76846289    -0.97400
O233        O  0.92989454  0.41747901  0.70337892    -0.54700
O234        O  0.88124185  0.38329896  0.73153356    -0.74000
C235        C  0.87347311  0.35688090  0.72836909     0.98300
O236        O  0.93286162  0.27546980  0.76673160    -0.62800
O237        O  0.04688266  0.35094266  0.75975351    -0.57600
O238        O  0.95326427  0.30813276  0.72565672    -0.94300
O239        O  0.99750591  0.32935385  0.72293411    -0.92800
O240        O  0.03859239  0.32455271  0.82734669    -0.93100
O241        O  0.99609742  0.28590474  0.83049199    -0.91900
C242        C  0.97869573  0.31080375  0.71466075     1.17200
H243        H  0.02766488  0.37977895  0.80903110     0.33100
H244        H  0.93082741  0.31643353  0.82991094     0.44000
H245        H  0.94667011  0.36356901  0.72030925     0.37500
H246        H  0.91891889  0.43299591  0.80949509     0.34000
H247        H  0.98615720  0.30717854  0.88587282     0.25800
H248        H  0.85488841  0.39387166  0.85156389     0.31700
H249        H  0.86621550  0.43610106  0.75157989     0.37600
H250        H  0.04766313  0.32998923  0.84590671     0.32100
H251        H  0.04373825  0.33096461  0.76675635     0.30900
H252        H  0.02818940  0.37979912  0.70105854     0.32600
H253        H  0.92011033  0.40161578  0.69299397     0.31600
H254        H  0.97946127  0.27825056  0.81946608     0.35600
H255        H  0.95380962  0.27096723  0.76611391     0.28300
H256        H  0.99686533  0.47229464  0.84354039     0.32500
H257        H  0.91138564  0.46410926  0.72943969     0.35400
H258        H  0.05402630  0.34858646  0.73971628     0.28000
H259        H  0.92681431  0.26852882  0.78607215     0.40900
H260        H  0.92153421  0.36670520  0.89348329     0.30900
H261        H  0.95748258  0.32514347  0.88448054     0.38600
H262        H  0.95081041  0.41386035  0.70044648     0.30400
H263        H  0.86424323  0.41557938  0.82722733     0.30500
H264        H  0.97827770  0.48025035  0.81614578     0.30700
Zr265      Zr  0.77237963  0.93065607  0.32654356     2.17500
O266        O  0.76874917  0.93089774  0.27392800    -0.51600
O267        O  0.74299788  0.88754378  0.33506022    -0.74800
O268        O  0.79986554  0.89177034  0.30526082    -0.81600
O269        O  0.72487508  0.99696590  0.32392576    -0.83400
O270        O  0.84089908  0.88465655  0.33161991    -0.79000
O271        O  0.72945474  0.95209934  0.30446659    -0.90600
O272        O  0.73778682  0.88138905  0.38337970    -0.76600
O273        O  0.78818964  0.90539258  0.36853431    -0.86100
O274        O  0.74326054  0.94883747  0.36473658    -0.85800
O275        O  0.82310584  0.94180448  0.33139283    -0.72500
O276        O  0.78252522  0.98158240  0.32806197    -0.84700
Zr277      Zr  0.81887315  0.98474827  0.41564991     2.26400
Zr278      Zr  0.83845998  0.91647935  0.37419127     2.06300
Zr279      Zr  0.75418179  0.99926653  0.36735674     2.10000
Zr280      Zr  0.75881322  0.92346097  0.40656138     1.78800
O281        O  0.74826991  0.04727778  0.34647302    -0.93500
O282        O  0.77049015  0.88275762  0.43794037    -0.41300
O283        O  0.76834439  0.97422217  0.41030184    -0.77900
O284        O  0.80903858  0.93366086  0.41363325    -0.96600
O285        O  0.84791029  0.96705466  0.37710728    -0.89900
O286        O  0.80425032  0.01054853  0.37352895    -0.92700
C287        C  0.73439236  0.87297554  0.35719789     1.01000
C288        C  0.71775000  0.97727048  0.30582751     1.14000
C289        C  0.82429904  0.87946315  0.30982959     1.04700
O290        O  0.84091340  0.86736069  0.39292107    -0.94900
O291        O  0.86889877  0.91818324  0.41792070    -0.90600
O292        O  0.85470547  0.95790634  0.44286225    -0.83800
C293        C  0.87029207  0.93515442  0.43994774     1.11400
O294        O  0.83079942  0.99291669  0.28231792    -0.96900
Zr295      Zr  0.83274091  0.99228269  0.33496987     1.88900
O296        O  0.86278183  0.01290492  0.40792473    -0.73500
O297        O  0.88892202  0.91722225  0.35897361    -0.52800
O298        O  0.87846191  0.97829699  0.31273177    -0.97400
O299        O  0.82536008  0.04210463  0.31926249    -0.54700
O300        O  0.87087022  0.01815416  0.35972608    -0.74000
C301        C  0.87780275  0.02185026  0.38627838     0.98300
O302        O  0.81564170  0.99555685  0.46710582    -0.62800
O303        O  0.70507249  0.99909161  0.38644417    -0.57600
O304        O  0.79445923  0.02792917  0.43407102    -0.94300
O305        O  0.75556659  0.03566406  0.40500787    -0.92800
O306        O  0.70676592  0.92843300  0.41328224    -0.93100
O307        O  0.74859336  0.93277230  0.45730846    -0.91900
C308        C  0.77175274  0.04222290  0.42655403     1.17200
H309        H  0.72294431  0.94557862  0.36110085     0.33100
H310        H  0.81436428  0.92420715  0.43146786     0.44000
H311        H  0.80719110  0.03105161  0.37584768     0.37500
H312        H  0.83369381  0.93537473  0.31459762     0.34000
H313        H  0.75176690  0.87296044  0.44137565     0.25800
H314        H  0.89610285  0.89748226  0.36311214     0.31700
H315        H  0.89129078  0.97317061  0.32909748     0.37600
H316        H  0.70087117  0.91050120  0.42340372     0.32100
H317        H  0.70711861  0.99205468  0.40657548     0.30900
H318        H  0.72887466  0.05372307  0.35290596     0.32600
H319        H  0.83276679  0.05424897  0.33517851     0.31600
H320        H  0.76677160  0.94102362  0.46497033     0.35600
H321        H  0.81501108  0.97663883  0.47712980     0.28300
H322        H  0.76135970  0.91155427  0.26869358     0.32500
H323        H  0.84355678  0.00898696  0.27626055     0.35400
H324        H  0.69983877  0.01973248  0.38839569     0.28000
H325        H  0.83459249  0.00399132  0.47226330     0.40900
H326        H  0.83637017  0.86912842  0.41375967     0.30900
H327        H  0.78145915  0.86929875  0.42546019     0.38600
H328        H  0.80413262  0.04491704  0.31973535     0.30400
H329        H  0.88824141  0.91840995  0.33761476     0.30500
H330        H  0.78893356  0.93129239  0.26673927     0.30700
Zr331      Zr  0.06781134  0.83432528  0.73344495     2.17500
O332        O  0.06371369  0.78291767  0.74415581    -0.51600
O333        O  0.11230755  0.84133570  0.76072393    -0.74800
O334        O  0.10250545  0.80715941  0.70527950    -0.81600
O335        O  0.00486283  0.84364289  0.78516200    -0.83400
O336        O  0.11360450  0.83112271  0.66385450    -0.79000
O337        O  0.04511620  0.81630347  0.77789395    -0.90600
O338        O  0.12292465  0.88914413  0.76084840    -0.76600
O339        O  0.09600376  0.87218227  0.71280496    -0.86100
O340        O  0.05527968  0.87661157  0.75953049    -0.85800
O341        O  0.05511531  0.83590726  0.68286690    -0.72500
O342        O  0.01683646  0.84023202  0.72588779    -0.84700
Zr343      Zr  0.01908812  0.92314407  0.68036368     2.26400
Zr344      Zr  0.08334905  0.87487660  0.66263683     2.06300
Zr345      Zr  0.00473135  0.88357302  0.75095065     2.10000
Zr346      Zr  0.08272499  0.91449083  0.73848934     1.78800
O347        O  0.95496166  0.86843573  0.75908190    -0.93500
O348        O  0.12580633  0.93984202  0.72181824    -0.41300
O349        O  0.03211286  0.92220483  0.73051007    -0.77900
O350        O  0.07021866  0.91787420  0.68840404    -0.96600
O351        O  0.03257268  0.88070854  0.65492889    -0.89900
O352        O  0.99109289  0.88535650  0.70112387    -0.92700
C353        C  0.12901289  0.86269949  0.76652879     1.01000
C354        C  0.02162911  0.82240417  0.79158552     1.14000
C355        C  0.11630426  0.80949552  0.68131614     1.04700
O356        O  0.13333374  0.89067937  0.65795076    -0.94900
O357        O  0.08363240  0.91648014  0.62866562    -0.90600
O358        O  0.04385596  0.94342800  0.63906897    -0.83800
C359        C  0.06690518  0.93852245  0.62439919     1.11400
O360        O  0.99745657  0.79170338  0.68547393    -0.96900
Zr361      Zr  0.00441119  0.84300933  0.67569187     1.88900
O362        O  0.98738158  0.91452569  0.63930223    -0.73500
O363        O  0.08181446  0.85440280  0.61424312    -0.52800
O364        O  0.01377113  0.81297390  0.63361340    -0.97400
O365        O  0.95320969  0.83422136  0.68524233    -0.54700
O366        O  0.98000554  0.86623824  0.63536221    -0.74000
C367        C  0.97696496  0.89231278  0.62638487     0.98300
O368        O  0.01941191  0.97587035  0.68171584    -0.62800
O369        O  0.00797769  0.90777929  0.79754005    -0.57600
O370        O  0.97594957  0.94432113  0.70204450    -0.94300
O371        O  0.97334510  0.92544773  0.74751650    -0.92800
O372        O  0.07531014  0.92820466  0.78873293    -0.93100
O373        O  0.08321700  0.96665449  0.74466567    -0.91900
C374        C  0.96504190  0.94295708  0.72758465     1.17200
H375        H  0.05952733  0.87428916  0.77984598     0.33100
H376        H  0.08046236  0.93438854  0.68079725     0.44000
H377        H  0.97064896  0.88900656  0.69899712     0.37500
H378        H  0.05979170  0.81790600  0.67353095     0.34000
H379        H  0.13903512  0.94000617  0.73863760     0.25800
H380        H  0.10186024  0.85629468  0.60691455     0.31700
H381        H  0.02349918  0.82596491  0.61963032     0.37600
H382        H  0.09440332  0.92544541  0.79801169     0.32100
H383        H  0.98836328  0.90603789  0.80596906     0.30900
H384        H  0.94996118  0.87602094  0.77843470     0.32600
H385        H  0.94268439  0.85062621  0.67633579     0.31600
H386        H  0.07012453  0.97407499  0.72941643     0.35600
H387        H  0.01759242  0.98081472  0.70244922     0.28300
H388        H  0.08276282  0.77722955  0.75212326     0.32500
H389        H  0.98057681  0.78589854  0.67370845     0.35400
H390        H  0.02016641  0.89503010  0.80971373     0.28000
H391        H  0.03945870  0.98163034  0.67686465     0.40900
H392        H  0.14339481  0.88224187  0.67488845     0.30900
H393        H  0.13501790  0.92644840  0.70794958     0.38600
H394        H  0.95094450  0.83705639  0.70632181     0.30400
H395        H  0.07916317  0.83339726  0.61727564     0.30500
H396        H  0.06239217  0.77322512  0.72516854     0.30700
Zr397      Zr  0.41848762  0.81923373  0.98004528     2.17500
O398        O  0.47079503  0.81856899  0.98700684    -0.51600
O399        O  0.40799297  0.86073018  0.01085474    -0.74800
O400        O  0.44188431  0.85832137  0.95457713    -0.81600
O401        O  0.41452133  0.75486401  0.02975960    -0.83400
O402        O  0.41751290  0.86830997  0.91311075    -0.79000
O403        O  0.43814859  0.79747594  0.02375800    -0.90600
O404        O  0.35968443  0.86880470  0.01159254    -0.76600
O405        O  0.37790619  0.84564717  0.96276137    -0.86100
O406        O  0.37822813  0.80099475  0.00629231    -0.85800
O407        O  0.41684124  0.80933052  0.92893136    -0.72500
O408        O  0.41706557  0.76855559  0.96897676    -0.84700
Zr409      Zr  0.33197415  0.76693480  0.92831126     2.26400
Zr410      Zr  0.37523038  0.83578803  0.91213496     2.06300
Zr411      Zr  0.37608857  0.75078546  0.99485515     2.10000
Zr412      Zr  0.33765946  0.82717059  0.98895845     1.78800
O413        O  0.39974880  0.70376416  0.99632285    -0.93500
O414        O  0.30613111  0.86626151  0.97297258    -0.41300
O415        O  0.33417299  0.77647076  0.97915404    -0.77900
O416        O  0.33394421  0.81783429  0.93835965    -0.96600
O417        O  0.37209553  0.78532379  0.90165322    -0.89900
O418        O  0.37292214  0.74036516  0.94452033    -0.92700
C419        C  0.38571189  0.87576280  0.01810186     1.01000
C420        C  0.43376740  0.77338273  0.03688908     1.14000
C421        C  0.43853858  0.87246064  0.93095467     1.04700
O422        O  0.35420326  0.88399069  0.91349132    -0.94900
O423        O  0.33404933  0.83381743  0.87847648    -0.90600
O424        O  0.30961297  0.79255787  0.88880867    -0.83800
C425        C  0.31293301  0.81608388  0.87449995     1.11400
O426        O  0.46448957  0.75067374  0.92590862    -0.96900
Zr427      Zr  0.41293506  0.75895397  0.91813175     1.88900
O428        O  0.34071146  0.73693039  0.88633842    -0.73500
O429        O  0.39291294  0.84169234  0.86284342    -0.52800
O430        O  0.44104181  0.77643892  0.87704632    -0.97400
O431        O  0.42561488  0.70781874  0.92088962    -0.54700
O432        O  0.38881919  0.73726659  0.87667916    -0.74000
C433        C  0.36253810  0.73097162  0.87022849     0.98300
O434        O  0.27917767  0.76392458  0.92991781    -0.62800
O435        O  0.35670518  0.74377573  0.04340545    -0.57600
O436        O  0.31235300  0.72274260  0.94978053    -0.94300
O437        O  0.33673587  0.71652980  0.99183036    -0.92800
O438        O  0.32874068  0.82518387  0.04084603    -0.93100
O439        O  0.28722069  0.81616953  0.99937024    -0.91900
C440        C  0.31684104  0.70950389  0.97386613     1.17200
H441        H  0.38055273  0.80393746  0.02683565     0.33100
H442        H  0.31647057  0.82717916  0.93171311     0.44000
H443        H  0.37048125  0.71993671  0.94117359     0.37500
H444        H  0.43424234  0.81606406  0.91956610     0.34000
H445        H  0.30036549  0.87619966  0.99099755     0.25800
H446        H  0.39247817  0.86279173  0.85927775     0.31700
H447        H  0.42665822  0.77972944  0.86153845     0.37600
H448        H  0.31733191  0.84279192  0.04509105     0.32100
H449        H  0.33546182  0.74542190  0.04126381     0.30900
H450        H  0.39644885  0.69652657  0.01622043     0.32600
H451        H  0.40902307  0.69733261  0.91246016     0.31600
H452        H  0.27952611  0.80844649  0.98100160     0.35600
H453        H  0.27422520  0.76065222  0.95050374     0.28300
H454        H  0.47601962  0.83818999  0.99361713     0.32500
H455        H  0.47148848  0.74054737  0.90842354     0.35400
H456        H  0.36017450  0.72313473  0.04791795     0.28000
H457        H  0.27207032  0.78376626  0.92617667     0.40900
H458        H  0.36517282  0.89428276  0.92865119     0.30900
H459        H  0.31922484  0.88004940  0.96313837     0.38600
H460        H  0.42493725  0.70306828  0.94175779     0.30400
H461        H  0.41373535  0.83674517  0.86381107     0.30500
H462        H  0.47913305  0.81696026  0.96734774     0.30700
Zr463      Zr  0.31893338  0.52037598  0.57848535     2.17500
O464        O  0.31868503  0.51665485  0.52588290    -0.51600
O465        O  0.36088149  0.48954848  0.58777308    -0.74800
O466        O  0.35882150  0.54633295  0.55683091    -0.81600
O467        O  0.25838792  0.46581680  0.58634110    -0.83400
O468        O  0.36541780  0.58879297  0.58059580    -0.79000
O469        O  0.29746274  0.47669106  0.55842102    -0.90600
O470        O  0.36956790  0.49115098  0.63601820    -0.76600
O471        O  0.34437516  0.53951142  0.61877465    -0.86100
O472        O  0.30285137  0.49341356  0.61927540    -0.85800
O473        O  0.30684810  0.57103224  0.58032436    -0.72500
O474        O  0.26766537  0.52889325  0.58087205    -0.84700
Zr475      Zr  0.26441422  0.57112500  0.66527190     2.26400
Zr476      Zr  0.33200395  0.58959557  0.62176931     2.06300
Zr477      Zr  0.25206691  0.50269326  0.62260625     2.10000
Zr478      Zr  0.32796300  0.51266862  0.65936615     1.78800
O479        O  0.20598191  0.49425833  0.59866397    -0.93500
O480        O  0.37037510  0.52801652  0.68643770    -0.41300
O481        O  0.27692000  0.52084367  0.66378177    -0.77900
O482        O  0.31566851  0.56242741  0.66294059    -0.96600
O483        O  0.28117326  0.59806429  0.62466093    -0.89900
O484        O  0.23896368  0.55258273  0.62468111    -0.92700
C485        C  0.37649012  0.48414084  0.61016165     1.01000
C486        C  0.27574193  0.46074721  0.56530059     1.14000
C487        C  0.37140342  0.57070831  0.56035780     1.04700
O488        O  0.38088763  0.59605500  0.64011025    -0.94900
O489        O  0.33130346  0.62045109  0.66504777    -0.90600
O490        O  0.28995818  0.60967015  0.68951358    -0.83800
C491        C  0.31398644  0.62332217  0.68676662     1.11400
O492        O  0.25037335  0.57002272  0.53273176    -0.96900
Zr493      Zr  0.25589484  0.57930244  0.58422051     1.88900
O494        O  0.23512448  0.61377802  0.65607147    -0.73500
O495        O  0.32931457  0.63841258  0.60217615    -0.52800
O496        O  0.26989950  0.62058312  0.55461863    -0.97400
O497        O  0.20496521  0.57420941  0.57138976    -0.54700
O498        O  0.23177161  0.61995564  0.60741449    -0.74000
C499        C  0.22699982  0.62795871  0.63355858     0.98300
O500        O  0.26054673  0.56686232  0.71779336    -0.62800
O501        O  0.24833296  0.45715272  0.64888697    -0.57600
O502        O  0.21905067  0.54992533  0.68247319    -0.94300
O503        O  0.21620459  0.50617230  0.66050099    -0.92800
O504        O  0.32122984  0.46200289  0.67191712    -0.93100
O505        O  0.32467729  0.50738645  0.71163461    -0.91900
C506        C  0.20723250  0.52508998  0.67861829     1.17200
H507        H  0.30702273  0.47307289  0.61712635     0.33100
H508        H  0.32506667  0.56879393  0.68039628     0.44000
H509        H  0.21833894  0.55504261  0.62682287     0.37500
H510        H  0.31329217  0.58059048  0.56287919     0.34000
H511        H  0.38193755  0.51023736  0.68945879     0.25800
H512        H  0.34772204  0.64752936  0.60810020     0.31700
H513        H  0.27615137  0.63538990  0.56864796     0.37600
H514        H  0.34096329  0.45476502  0.67606921     0.32100
H515        H  0.23053743  0.44802618  0.64132268     0.30900
H516        H  0.19790354  0.51376876  0.59517823     0.32600
H517        H  0.20136816  0.58977832  0.55709564     0.31600
H518        H  0.31399273  0.52475154  0.71810384     0.35600
H519        H  0.25664175  0.54617180  0.72160673     0.28300
H520        H  0.33794002  0.50889057  0.52057808     0.32500
H521        H  0.26858296  0.56031636  0.52697851     0.35400
H522        H  0.26429722  0.44504992  0.64134988     0.28000
H523        H  0.28046334  0.56948832  0.72514080     0.40900
H524        H  0.39163501  0.57879186  0.63347210     0.30900
H525        H  0.38181959  0.53958968  0.67250629     0.38600
H526        H  0.19397892  0.58034132  0.58869487     0.30400
H527        H  0.33114093  0.63604360  0.58099003     0.30500
H528        H  0.31865093  0.53680002  0.51861624     0.30700
Zr529      Zr  0.51614228  0.58382572  0.31682267     2.17500
O530        O  0.50514117  0.53248894  0.31313996    -0.51600
O531        O  0.48884880  0.59016375  0.36158323    -0.74800
O532        O  0.54510860  0.55482149  0.34934149    -0.81600
O533        O  0.46331117  0.59568664  0.25579486    -0.83400
O534        O  0.58654431  0.57866578  0.36089501    -0.79000
O535        O  0.47175173  0.56600728  0.29405840    -0.90600
O536        O  0.49113263  0.63741944  0.37397672    -0.76600
O537        O  0.53739496  0.62088782  0.34545454    -0.86100
O538        O  0.49010720  0.62668441  0.30523299    -0.85800
O539        O  0.56662540  0.58546636  0.30332177    -0.72500
O540        O  0.52338791  0.59074520  0.26588134    -0.84700
Zr541      Zr  0.56772364  0.67353716  0.26911938     2.26400
Zr542      Zr  0.58747544  0.62362182  0.33189513     2.06300
Zr543      Zr  0.49812177  0.63434585  0.25466680     2.10000
Zr544      Zr  0.51142209  0.66361272  0.33352385     1.78800
O545        O  0.49143306  0.61729512  0.20541007    -0.93500
O546        O  0.53107973  0.68744181  0.37604703    -0.41300
O547        O  0.51784173  0.67243013  0.28285837    -0.77900
O548        O  0.56104622  0.66695904  0.32030159    -0.96600
O549        O  0.59396624  0.63101907  0.28125798    -0.89900
O550        O  0.54766859  0.63627686  0.24031813    -0.92700
C551        C  0.48412024  0.61114382  0.37909153     1.01000
C552        C  0.45718600  0.57371530  0.27159399     1.14000
C553        C  0.56933055  0.55678591  0.36263860     1.04700
O554        O  0.59796395  0.63410346  0.38229936    -0.94900
O555        O  0.61973518  0.66664239  0.33353595    -0.90600
O556        O  0.60804569  0.69381888  0.29428733    -0.83800
C557        C  0.62286105  0.68923209  0.31721362     1.11400
O558        O  0.56429791  0.54259704  0.24478856    -0.96900
Zr559      Zr  0.57354273  0.59376154  0.25282268     1.88900
O560        O  0.61011583  0.66632744  0.23909127    -0.73500
O561        O  0.63567636  0.60403486  0.32361541    -0.52800
O562        O  0.61589722  0.56408767  0.26312174    -0.97400
O563        O  0.56522854  0.58494798  0.20152824    -0.54700
O564        O  0.61396023  0.61833377  0.22967882    -0.74000
C565        C  0.62330798  0.64440701  0.22841003     0.98300
O566        O  0.56539241  0.72625880  0.26955272    -0.62800
O567        O  0.45074716  0.65748078  0.25569497    -0.57600
O568        O  0.54634656  0.69497767  0.22597905    -0.94300
O569        O  0.50073963  0.67672114  0.22384200    -0.92800
O570        O  0.46069962  0.67791463  0.33252179    -0.93100
O571        O  0.50526636  0.71583238  0.33248386    -0.91900
C572        C  0.52071498  0.69397551  0.21532721     1.17200
H573        H  0.46974300  0.62461465  0.30958630     0.33100
H574        H  0.56838702  0.68332449  0.33081460     0.44000
H575        H  0.54968348  0.64027171  0.21991699     0.37500
H576        H  0.57609077  0.56729802  0.30728457     0.34000
H577        H  0.51430610  0.69008127  0.38910521     0.25800
H578        H  0.64577101  0.60658651  0.34229237     0.31700
H579        H  0.63159332  0.57800502  0.26715654     0.37600
H580        H  0.45494496  0.67928932  0.35309186     0.32100
H581        H  0.45455993  0.67742733  0.26229013     0.30900
H582        H  0.47196229  0.62427856  0.19983227     0.32600
H583        H  0.57424995  0.60144715  0.19129247     0.31600
H584        H  0.52422409  0.72330156  0.32588768     0.35600
H585        H  0.54462550  0.73101218  0.26721014     0.28300
H586        H  0.50178165  0.52554060  0.33313264     0.32500
H587        H  0.57822627  0.53654909  0.22969612     0.35400
H588        H  0.44515182  0.65963013  0.23514081     0.28000
H589        H  0.56954249  0.73190188  0.28974365     0.40900
H590        H  0.57978545  0.62962386  0.39271385     0.30900
H591        H  0.54305338  0.67247275  0.38563632     0.38600
H592        H  0.54417427  0.58782088  0.19886863     0.30400
H593        H  0.63272763  0.58293079  0.32209078     0.30500
H594        H  0.52340135  0.52319640  0.30690277     0.30700
Zr595      Zr  0.66290551  0.26607780  0.57025712     2.17500
O596        O  0.71446994  0.25514916  0.56740189    -0.51600
O597        O  0.65512258  0.23685964  0.61342957    -0.74800
O598        O  0.68993973  0.29185570  0.60643963    -0.81600
O599        O  0.65047396  0.21368396  0.50885915    -0.83400
O600        O  0.66640282  0.33291302  0.61912392    -0.79000
O601        O  0.67982975  0.22151839  0.54733532    -0.90600
O602        O  0.60760979  0.23995224  0.62494186    -0.76600
O603        O  0.62538108  0.28728248  0.59867873    -0.86100
O604        O  0.61989727  0.24138883  0.55735480    -0.85800
O605        O  0.66311400  0.31681509  0.55824726    -0.72500
O606        O  0.65760881  0.27516496  0.51941279    -0.84700
Zr607      Zr  0.57494279  0.32129358  0.52170628     2.26400
Zr608      Zr  0.62448647  0.33757013  0.58623266     2.06300
Zr609      Zr  0.61381509  0.25094218  0.50699610     2.10000
Zr610      Zr  0.58243600  0.26276920  0.58501664     1.78800
O611        O  0.63135057  0.24423874  0.45784110    -0.93500
O612        O  0.55652321  0.27943712  0.62771320    -0.41300
O613        O  0.57506742  0.27105349  0.53437803    -0.77900
O614        O  0.58070796  0.31284522  0.57291764    -0.96600
O615        O  0.61772090  0.34628128  0.53569618    -0.89900
O616        O  0.61297470  0.30091035  0.49388569    -0.92700
C617        C  0.63361629  0.23198607  0.63037108     1.01000
C618        C  0.67189916  0.20687429  0.52512044     1.14000
C619        C  0.68757021  0.31480929  0.62159930     1.04700
O620        O  0.61090242  0.35106472  0.63520883    -0.94900
O621        O  0.58275891  0.37094812  0.58719654    -0.90600
O622        O  0.55581766  0.36274368  0.54683277    -0.83800
C623        C  0.56101768  0.37620133  0.57044509     1.11400
O624        O  0.70736429  0.31809210  0.50095979    -0.96900
Zr625      Zr  0.65559676  0.32582031  0.50781243     1.88900
O626        O  0.58322947  0.36169454  0.48889320    -0.73500
O627        O  0.64956267  0.38326501  0.57880406    -0.52800
O628        O  0.68221153  0.36900416  0.52155335    -0.97400
O629        O  0.66884100  0.31820953  0.45728517    -0.54700
O630        O  0.63169772  0.36542644  0.48229991    -0.74000
C631        C  0.60565821  0.37446568  0.47853522     0.98300
O632        O  0.52213970  0.32121024  0.52331485    -0.62800
O633        O  0.58722221  0.20554443  0.50724103    -0.57600
O634        O  0.55331559  0.29947370  0.47845661    -0.94300
O635        O  0.57292476  0.25451349  0.47495794    -0.92800
O636        O  0.56814814  0.21235173  0.58088238    -0.93100
O637        O  0.53000056  0.25828074  0.58299576    -0.91900
C638        C  0.55513273  0.27421334  0.46697034     1.17200
H639        H  0.62154844  0.22095982  0.56139846     0.33100
H640        H  0.56430417  0.32046653  0.58333885     0.44000
H641        H  0.60936340  0.30341306  0.47349616     0.37500
H642        H  0.68136953  0.32545092  0.56342899     0.34000
H643        H  0.55287765  0.26174470  0.63923754     0.25800
H644        H  0.63678960  0.39792968  0.58771301     0.31700
H645        H  0.68501061  0.37988617  0.50330675     0.37600
H646        H  0.56653388  0.20535334  0.60107030     0.32100
H647        H  0.59377599  0.19544914  0.48957353     0.30900
H648        H  0.65185066  0.25033853  0.45848828     0.32600
H649        H  0.67245898  0.33780527  0.44945502     0.31600
H650        H  0.52339077  0.27619896  0.57328264     0.35600
H651        H  0.51649881  0.30091806  0.51975128     0.28300
H652        H  0.71954796  0.24641331  0.58630493     0.32500
H653        H  0.71414998  0.33437007  0.48879582     0.35400
H654        H  0.59554411  0.19413738  0.52335852     0.28000
H655        H  0.51705319  0.32425728  0.54387848     0.40900
H656        H  0.59254026  0.34070611  0.63884808     0.30900
H657        H  0.57116049  0.29016859  0.63895134     0.38600
H658        H  0.65102291  0.31179666  0.44741605     0.30400
H659        H  0.66666919  0.38246454  0.59164451     0.30500
H660        H  0.72447030  0.27403128  0.56702831     0.30700
Zr661      Zr  0.68186108  0.01746628  0.92278295     2.17500
O662        O  0.68475271  0.01385094  0.97531047    -0.51600
O663        O  0.63959130  0.98676033  0.91480046    -0.74800
O664        O  0.64197009  0.04200346  0.94527558    -0.81600
O665        O  0.74949791  0.97213126  0.92276128    -0.83400
O666        O  0.62917685  0.08092163  0.91799958    -0.79000
O667        O  0.70550525  0.97575050  0.94453995    -0.90600
O668        O  0.63438049  0.98013012  0.86643612    -0.76600
O669        O  0.65494915  0.03185135  0.88146639    -0.86100
O670        O  0.70106083  0.99008688  0.88384775    -0.85800
O671        O  0.68916454  0.06885916  0.91847964    -0.72500
O672        O  0.73193850  0.03087517  0.92042930    -0.84700
Zr673      Zr  0.73136877  0.06880288  0.83360039     2.26400
Zr674      Zr  0.66219747  0.08268860  0.87614504     2.06300
Zr675      Zr  0.75075518  0.00412848  0.88078084     2.10000
Zr676      Zr  0.67426610  0.00467728  0.84255280     1.78800
O677        O  0.79850933  0.00706310  0.90269221    -0.93500
O678        O  0.63134230  0.01508207  0.81377298    -0.41300
O679        O  0.72429253  0.01759530  0.83834256    -0.77900
O680        O  0.68108230  0.05541334  0.83606555    -0.96600
O681        O  0.71214982  0.09605309  0.87259415    -0.89900
O682        O  0.75874024  0.05494459  0.87496507    -0.92700
C683        C  0.62595236  0.97694930  0.89267844     1.01000
C684        C  0.73080355  0.96450201  0.94194302     1.14000
C685        C  0.62621522  0.06419913  0.94019722     1.04700
O686        O  0.61373403  0.07950841  0.85585053    -0.94900
O687        O  0.66145640  0.11432474  0.83331937    -0.90600
O688        O  0.70097150  0.10192947  0.80674828    -0.83800
C689        C  0.67737198  0.11600393  0.81048599     1.11400
O690        O  0.74485404  0.07704444  0.96621312    -0.96900
Zr691      Zr  0.73901749  0.08181027  0.91402183     1.88900
O692        O  0.75770648  0.11362712  0.84118591    -0.73500
O693        O  0.65602472  0.13246852  0.89183340    -0.52800
O694        O  0.71787285  0.12495790  0.93551075    -0.97400
O695        O  0.78894142  0.08212457  0.93110481    -0.54700
O696        O  0.76350807  0.12105941  0.88927735    -0.74000
C697        C  0.76652367  0.12857698  0.86275392     0.98300
O698        O  0.74334498  0.07055246  0.78221927    -0.62800
O699        O  0.75932093  0.95481497  0.86462710    -0.57600
O700        O  0.77446466  0.04617439  0.81338326    -0.94300
O701        O  0.78379421  0.00595039  0.84008724    -0.92800
O702        O  0.68491339  0.95405312  0.83296877    -0.93100
O703        O  0.68081762  0.99748480  0.79084312    -0.91900
C704        C  0.78896889  0.02309317  0.81882689     1.17200
H705        H  0.69907938  0.96958420  0.88725233     0.33100
H706        H  0.67092138  0.06022333  0.81848750     0.44000
H707        H  0.77899660  0.05917941  0.87219174     0.37500
H708        H  0.68194269  0.07868005  0.93537913     0.34000
H709        H  0.62291962  0.99593959  0.80945156     0.25800
H710        H  0.63582553  0.13738018  0.88663294     0.31700
H711        H  0.71667984  0.13914684  0.91948704     0.37600
H712        H  0.66616044  0.94396772  0.83505737     0.32100
H713        H  0.75676866  0.95541050  0.84338731     0.30900
H714        H  0.79550258  0.01836435  0.92057296     0.32600
H715        H  0.79215682  0.10200066  0.93823456     0.31600
H716        H  0.68649230  0.01670004  0.78328567     0.35600
H717        H  0.72561941  0.06432858  0.77202579     0.28300
H718        H  0.66597101  0.00575775  0.98162733     0.32500
H719        H  0.74810976  0.09684805  0.97348636     0.35400
H720        H  0.78031872  0.95164088  0.86749694     0.28000
H721        H  0.74571444  0.09123013  0.77720726     0.40900
H722        H  0.60467912  0.06290622  0.86590277     0.30900
H723        H  0.61753597  0.02398141  0.82748927     0.38600
H724        H  0.80106107  0.08081780  0.91351329     0.30400
H725        H  0.65603806  0.13157508  0.91321630     0.30500
H726        H  0.68470331  0.03403713  0.98230565     0.30700
Zr727      Zr  0.91713303  0.67729662  0.01823754     2.17500
O728        O  0.96933836  0.67591783  0.01057409    -0.51600
O729        O  0.90678208  0.63846794  0.98459442    -0.74800
O730        O  0.93990346  0.63692054  0.04275999    -0.81600
O731        O  0.91473285  0.74570953  0.97326112    -0.83400
O732        O  0.91596805  0.62710218  0.08462991    -0.79000
O733        O  0.93920680  0.70332337  0.97753403    -0.90600
O734        O  0.85869668  0.62942898  0.98587411    -0.76600
O735        O  0.87678372  0.65075346  0.03653297    -0.86100
O736        O  0.87615870  0.69519532  0.99278057    -0.85800
O737        O  0.91602523  0.68615855  0.06959305    -0.72500
O738        O  0.91522158  0.72771579  0.02962376    -0.84700
Zr739      Zr  0.83142809  0.73001639  0.07322132     2.26400
Zr740      Zr  0.87433913  0.66047739  0.08739857     2.06300
Zr741      Zr  0.87333366  0.74521455  0.00495322     2.10000
Zr742      Zr  0.83591553  0.66930127  0.01146064     1.78800
O743        O  0.89131880  0.79412099  0.99780812    -0.93500
O744        O  0.80778325  0.62796862  0.02805428    -0.41300
O745        O  0.83198597  0.71989043  0.02241275    -0.77900
O746        O  0.83287799  0.67919206  0.06208197    -0.96600
O747        O  0.87207781  0.71082082  0.09854854    -0.89900
O748        O  0.87220533  0.75559286  0.05542368    -0.92700
C749        C  0.88458788  0.62331054  0.97783850     1.01000
C750        C  0.93517970  0.72841505  0.96608782     1.14000
C751        C  0.93659327  0.62260559  0.06632340     1.04700
O752        O  0.85504698  0.61174889  0.09152254    -0.94900
O753        O  0.83198302  0.66175544  0.12001570    -0.90600
O754        O  0.81009769  0.70535542  0.11385443    -0.83800
C755        C  0.81217898  0.68053691  0.12602761     1.11400
O756        O  0.96522558  0.73838219  0.07465973    -0.96900
Zr757      Zr  0.91280454  0.73641201  0.08056695     1.88900
O758        O  0.84167236  0.76233624  0.11341920    -0.73500
O759        O  0.89330251  0.65877195  0.13646829    -0.52800
O760        O  0.93824283  0.72044650  0.12389015    -0.97400
O761        O  0.92889631  0.78623486  0.07462902    -0.54700
O762        O  0.89026794  0.76142801  0.12057570    -0.74000
C763        C  0.86453633  0.76888783  0.12775238     0.98300
O764        O  0.77857184  0.73217421  0.07378568    -0.62800
O765        O  0.85039196  0.74451020  0.95758160    -0.57600
O766        O  0.81201279  0.77461412  0.05227195    -0.94300
O767        O  0.83505029  0.78055498  0.00924867    -0.92800
O768        O  0.82205820  0.67828415  0.96142122    -0.93100
O769        O  0.78393173  0.67327562  0.00395871    -0.91900
C770        C  0.81605911  0.78781763  0.02809118     1.17200
H771        H  0.87828324  0.69246986  0.97218112     0.33100
H772        H  0.81537771  0.67003519  0.06885942     0.44000
H773        H  0.87024888  0.77605977  0.05877412     0.37500
H774        H  0.93349152  0.67917761  0.07860459     0.34000
H775        H  0.80596094  0.61543978  0.01086626     0.25800
H776        H  0.89919389  0.63841775  0.13950523     0.31700
H777        H  0.94389740  0.73842529  0.13390755     0.37600
H778        H  0.82225241  0.65906895  0.95211963     0.32100
H779        H  0.82936748  0.74423803  0.96169027     0.30900
H780        H  0.88417984  0.79996339  0.97847320     0.32600
H781        H  0.91211188  0.79838286  0.08002347     0.31600
H782        H  0.77679113  0.68376394  0.02116594     0.35600
H783        H  0.77290610  0.73678059  0.05365412     0.28300
H784        H  0.97362845  0.65643342  0.00291565     0.32500
H785        H  0.97213555  0.75302367  0.08856889     0.35400
H786        H  0.85401376  0.76393394  0.94934740     0.28000
H787        H  0.77202583  0.71197825  0.07637004     0.40900
H788        H  0.86218831  0.60165511  0.07408501     0.30900
H789        H  0.82100004  0.61728361  0.04109005     0.38600
H790        H  0.93085955  0.78885178  0.05346773     0.30400
H791        H  0.91172771  0.66955969  0.13546752     0.30500
H792        H  0.97801675  0.67620247  0.03013470     0.30700
C793        C  0.72907901  0.89583933  0.98734252    -0.27900
C794        C  0.75831973  0.89309410  0.99495924     0.01700
C795        C  0.77772219  0.91528574  0.98765173     0.29800
C796        C  0.76826167  0.93883412  0.97111125    -0.19700
C797        C  0.73927410  0.94105415  0.96219951    -0.29100
C798        C  0.71935883  0.91987592  0.97150951     0.43800
C799        C  0.76959968  0.86501176  0.00527114     0.05000
O800        O  0.80647104  0.91299196  0.99460493    -0.57600
H801        H  0.78383296  0.95506150  0.96457122     0.17900
O802        O  0.69090970  0.92116102  0.96322574    -0.64300
H803        H  0.71404582  0.87865886  0.99254182     0.16400
C804        C  0.77836782  0.86043868  0.03406921     0.28600
C805        C  0.79216758  0.83447615  0.04186441    -0.25200
C806        C  0.79802884  0.81330171  0.02093828    -0.24500
C807        C  0.78861246  0.81786386  0.99227768     0.40100
C808        C  0.77417756  0.84332241  0.98480508    -0.27000
O809        O  0.77469142  0.88162588  0.05436110    -0.58900
H810        H  0.79955248  0.83150188  0.06389786     0.15700
O811        O  0.79343060  0.79749888  0.97134400    -0.60300
H812        H  0.76758883  0.84668706  0.96256260     0.14200
H813        H  0.68087091  0.93149626  0.97908104     0.46000
H814        H  0.75470458  0.87901017  0.06170191     0.41400
H815        H  0.81048741  0.80452338  0.96036201     0.44900
H816        H  0.80797975  0.92056500  0.01456597     0.36300
C817        C  0.62431748  0.20083427  0.70642916    -0.27900
C818        C  0.65077189  0.18658085  0.71049279     0.01700
C819        C  0.67175777  0.18781978  0.68835470     0.29800
C820        C  0.66594298  0.20263356  0.66257384    -0.19700
C821        C  0.63921106  0.21649197  0.65812295    -0.29100
C822        C  0.61836191  0.21555726  0.68057959     0.43800
C823        C  0.65565476  0.16875860  0.73685879     0.05000
O824        O  0.69801666  0.17434455  0.69158476    -0.57600
H825        H  0.68243148  0.20300256  0.64591604     0.17900
O826        O  0.59218928  0.22928139  0.67780788    -0.64300
H827        H  0.60783051  0.19990052  0.72306313     0.16400
C828        C  0.65229274  0.17994244  0.76504098     0.28600
C829        C  0.65828210  0.16242161  0.78928221    -0.25200
C830        C  0.66781979  0.13385709  0.78566675    -0.24500
C831        C  0.67016998  0.12259748  0.75747125     0.40100
C832        C  0.66398514  0.13987327  0.73353023    -0.27000
O833        O  0.64492001  0.20835601  0.76902266    -0.58900
H834        H  0.65664743  0.17149964  0.81077079     0.15700
O835        O  0.67890515  0.09464557  0.75299688    -0.60300
H836        H  0.66599284  0.13066166  0.71212228     0.14200
H837        H  0.57861511  0.21420954  0.67100592     0.46000
H838        H  0.62460491  0.20805952  0.77592567     0.41400
H839        H  0.66116088  0.08283828  0.75517281     0.44900
H840        H  0.71018075  0.18822560  0.70237146     0.36300
C841        C  0.57760857  0.47877077  0.38588814    -0.27900
C842        C  0.58665037  0.48136000  0.41462486     0.01700
C843        C  0.59206585  0.50914196  0.42586496     0.29800
C844        C  0.58760962  0.53382304  0.40855054    -0.19700
C845        C  0.57767942  0.53112487  0.38001665    -0.29100
C846        C  0.57337080  0.50322342  0.36861017     0.43800
C847        C  0.59106475  0.45468997  0.43208427     0.05000
O848        O  0.60119283  0.51242298  0.45384930    -0.57600
H849        H  0.59095767  0.55504785  0.41770460     0.17900
O850        O  0.56500747  0.49959941  0.34042341    -0.64300
H851        H  0.57406976  0.45759153  0.37668170     0.16400
C852        C  0.56820813  0.43522500  0.43711406     0.28600
C853        C  0.57326693  0.40923159  0.45199022    -0.25200
C854        C  0.60113444  0.40186361  0.46189577    -0.24500
C855        C  0.62394620  0.42167473  0.45693691     0.40100
C856        C  0.61876622  0.44768786  0.44217580    -0.27000
O857        O  0.54064539  0.44185542  0.42830878    -0.58900
H858        H  0.55521995  0.39479572  0.45571402     0.15700
O859        O  0.65144994  0.41605313  0.46650679    -0.60300
H860        H  0.63661412  0.46232215  0.43823499     0.14200
H861        H  0.58328794  0.49777769  0.32932744     0.46000
H862        H  0.53768672  0.43077912  0.41025585     0.41400
H863        H  0.65259121  0.42515697  0.48584041     0.44900
H864        H  0.58343682  0.51087122  0.46580402     0.36300
C865        C  0.69969473  0.67151627  0.21649165    -0.27900
C866        C  0.70803603  0.65644232  0.19151175     0.01700
C867        C  0.68815407  0.63713619  0.17884585     0.29800
C868        C  0.66059898  0.63342404  0.19093653    -0.19700
C869        C  0.65205592  0.64923771  0.21529374    -0.29100
C870        C  0.67199984  0.66819725  0.22825783     0.43800
C871        C  0.73673907  0.66228642  0.17793364     0.05000
O872        O  0.69516707  0.62216214  0.15430214    -0.57600
H873        H  0.64566668  0.61849211  0.18092824     0.17900
O874        O  0.66489192  0.68312963  0.25283716    -0.64300
H875        H  0.71475555  0.68596144  0.22699465     0.16400
C876        C  0.74577899  0.69086200  0.17265969     0.28600
C877        C  0.77162165  0.69617385  0.15792289    -0.25200
C878        C  0.78864461  0.67343613  0.14694755    -0.24500
C879        C  0.78002168  0.64478756  0.15286156     0.40100
C880        C  0.75458949  0.63945015  0.16868056    -0.27000
O881        O  0.72878129  0.71388739  0.18044283    -0.58900
H882        H  0.77753008  0.71844073  0.15377032     0.15700
O883        O  0.79534226  0.62182792  0.14211006    -0.60300
H884        H  0.74828142  0.61730682  0.17283361     0.14200
H885        H  0.67053520  0.67028364  0.26909479     0.46000
H886        H  0.71571250  0.71723147  0.16376591     0.41400
H887        H  0.78687013  0.61805866  0.12279789     0.44900
H888        H  0.69074755  0.63551468  0.13808332     0.36300
C889        C  0.50301908  0.41524291  0.61339700    -0.27900
C890        C  0.48733849  0.42859236  0.59097704     0.01700
C891        C  0.49892607  0.42851841  0.56283840     0.29800
C892        C  0.52434980  0.41314579  0.55697841    -0.19700
C893        C  0.53892123  0.39787778  0.57890289    -0.29100
C894        C  0.52874418  0.40008600  0.60756718     0.43800
C895        C  0.45858164  0.44185409  0.59678161     0.05000
O896        O  0.48564398  0.44372494  0.54102197    -0.57600
H897        H  0.53215881  0.41230399  0.53489502     0.17900
O898        O  0.54228097  0.38552950  0.62960266    -0.64300
H899        H  0.49460812  0.41546095  0.63526442     0.16400
C900        C  0.43383387  0.43331408  0.58115027     0.28600
C901        C  0.40734788  0.44744421  0.58537605    -0.25200
C902        C  0.40464137  0.46934113  0.60604834    -0.24500
C903        C  0.42910341  0.47697469  0.62264925     0.40100
C904        C  0.45576826  0.46332994  0.61787622    -0.27000
O905        O  0.43521439  0.41088056  0.56193784    -0.58900
H906        H  0.38871915  0.44085839  0.57284801     0.15700
O907        O  0.42739193  0.49820863  0.64317333    -0.60300
H908        H  0.47445614  0.46995601  0.63029358     0.14200
H909        H  0.55627880  0.39951601  0.63771927     0.46000
H910        H  0.43146114  0.39328498  0.57363586     0.41400
H911        H  0.43154359  0.51645899  0.63269061     0.44900
H912        H  0.47823051  0.42901914  0.52739327     0.36300
C913        C  0.42861719  0.56391055  0.50239246    -0.27900
C914        C  0.42667563  0.59094908  0.48873941     0.01700
C915        C  0.40859316  0.61236335  0.50073298     0.29800
C916        C  0.39205304  0.60615780  0.52543737    -0.19700
C917        C  0.39309088  0.57868077  0.53829180    -0.29100
C918        C  0.41211966  0.55771877  0.52698993     0.43800
C919        C  0.44224501  0.59577903  0.46106556     0.05000
O920        O  0.40515050  0.63851608  0.48710077    -0.57600
H921        H  0.37713531  0.62230848  0.53352367     0.17900
O922        O  0.41402393  0.53073709  0.53923089    -0.64300
H923        H  0.44260719  0.54732937  0.49357180     0.16400
C924        C  0.46184622  0.61873358  0.45761870     0.28600
C925        C  0.47534692  0.62334612  0.43090339    -0.25200
C926        C  0.47006696  0.60497531  0.40731009    -0.24500
C927        C  0.45118468  0.58138147  0.41112935     0.40100
C928        C  0.43746563  0.57698586  0.43779988    -0.27000
O929        O  0.46813369  0.63665577  0.48027668    -0.58900
H930        H  0.49018156  0.64131413  0.42872098     0.15700
O931        O  0.44551171  0.56277651  0.38886137    -0.60300
H932        H  0.42260064  0.55907131  0.44019340     0.14200
H933        H  0.42538782  0.53335685  0.55720248     0.46000
H934        H  0.48405641  0.62692471  0.49088537     0.41400
H935        H  0.42924253  0.57170487  0.37807503     0.44900
H936        H  0.41459104  0.65282847  0.49986901     0.36300
C937        C  0.47348361  0.72989361  0.09349323    -0.27900
C938        C  0.48086638  0.75122644  0.11349030     0.01700
C939        C  0.47427665  0.78030938  0.10753757     0.29800
C940        C  0.46006274  0.78767452  0.08176154    -0.19700
C941        C  0.45166253  0.76609444  0.06223640    -0.29100
C942        C  0.45893502  0.73705784  0.06811123     0.43800
C943        C  0.49363826  0.74198367  0.14118572     0.05000
O944        O  0.48174089  0.80154550  0.12669484    -0.57600
H945        H  0.45462565  0.81007514  0.07758351     0.17900
O946        O  0.45149431  0.71537506  0.04941862    -0.64300
H947        H  0.47836187  0.70741916  0.09800127     0.16400
C948        C  0.47685513  0.74219025  0.16655333     0.28600
C949        C  0.48678201  0.72783353  0.19126519    -0.25200
C950        C  0.51340179  0.71320333  0.19103422    -0.24500
C951        C  0.53078539  0.71411561  0.16605270     0.40100
C952        C  0.52079767  0.72842268  0.14129012    -0.27000
O953        O  0.44996677  0.75477997  0.16683228    -0.58900
H954        H  0.47310958  0.72706130  0.21030107     0.15700
O955        O  0.55656297  0.69943029  0.16497446    -0.60300
H956        H  0.53360816  0.72772519  0.12167179     0.14200
H957        H  0.46644852  0.71581312  0.03403787     0.46000
H958        H  0.43647748  0.73945897  0.16043502     0.41400
H959        H  0.55162260  0.67990443  0.15777582     0.44900
H960        H  0.46387838  0.80561589  0.13785987     0.36300
C961        C  0.50430804  0.92042796  0.93953007    -0.27900
C962        C  0.51324863  0.92445369  0.91081494     0.01700
C963        C  0.49529852  0.91418995  0.88838746     0.29800
C964        C  0.46986366  0.89882563  0.89496423    -0.19700
C965        C  0.46180398  0.89355770  0.92382997    -0.29100
C966        C  0.47879711  0.90565792  0.94610428     0.43800
C967        C  0.54173801  0.93854937  0.90499727     0.05000
O968        O  0.50273711  0.91839986  0.85998325    -0.57600
H969        H  0.45720217  0.88987684  0.87747431     0.17900
O970        O  0.47121244  0.90239552  0.97461188    -0.64300
H971        H  0.51761368  0.92810657  0.95715235     0.16400
C972        C  0.54937403  0.96454748  0.91884787     0.28600
C973        C  0.57714488  0.97612000  0.91535516    -0.25200
C974        C  0.59765702  0.96266606  0.89751920    -0.24500
C975        C  0.58987574  0.93716316  0.88294587     0.40100
C976        C  0.56224592  0.92515765  0.88694588    -0.27000
O977        O  0.52971402  0.97905129  0.93564841    -0.58900
H978        H  0.58237602  0.99626885  0.92590480     0.15700
O979        O  0.60920025  0.92364751  0.86498576    -0.60300
H980        H  0.55702937  0.90504376  0.87629786     0.14200
H981        H  0.45685982  0.91788144  0.97837765     0.46000
H982        H  0.51811391  0.99077690  0.92190394     0.41400
H983        H  0.62001647  0.91003703  0.87758384     0.44900
H984        H  0.49732722  0.93868973  0.85564222     0.36300
C985        C  0.35211713  0.67815383  0.73560043    -0.27900
C986        C  0.33920004  0.67172018  0.76240783     0.01700
C987        C  0.31831498  0.64979074  0.76389083     0.29800
C988        C  0.31010354  0.63513737  0.73898921    -0.19700
C989        C  0.32270139  0.64135808  0.71193534    -0.29100
C990        C  0.34403187  0.66315167  0.71043680     0.43800
C991        C  0.34627590  0.68841586  0.78880190     0.05000
O992        O  0.30579396  0.64236377  0.78977260    -0.57600
H993        H  0.29405133  0.61829088  0.74119994     0.17900
O994        O  0.35697116  0.67013545  0.68466567    -0.64300
H995        H  0.36814870  0.69512416  0.73411367     0.16400
C996        C  0.37418328  0.68820501  0.80091797     0.28600
C997        C  0.37930956  0.70213314  0.82734765    -0.25200
C998        C  0.35683548  0.71648168  0.84209818    -0.24500
C999        C  0.32906500  0.71729324  0.82928850     0.40100
C1000       C  0.32403297  0.70322868  0.80309928    -0.27000
O1001       O  0.39618029  0.67317848  0.78789973    -0.58900
H1002       H  0.40083241  0.70122156  0.83654611     0.15700
O1003       O  0.30654635  0.73178608  0.84205968    -0.60300
H1004       H  0.30248302  0.70375924  0.79390253     0.14200
H1005       H  0.34330752  0.68354726  0.67494831     0.46000
H1006       H  0.40697600  0.68775910  0.77645706     0.41400
H1007       H  0.30745589  0.75168091  0.83409357     0.44900
H1008       H  0.31925298  0.62821154  0.79869391     0.36300
C1009       C  0.97488583  0.78452193  0.84751190    -0.27900
C1010       C  0.99549484  0.77408006  0.86710062     0.01700
C1011       C  0.02509248  0.77759993  0.86084018     0.29800
C1012       C  0.03364533  0.79225629  0.83550132    -0.19700
C1013       C  0.01286022  0.80398835  0.81652604    -0.29100
C1014       C  0.98327041  0.79920041  0.82244601     0.43800
C1015       C  0.98512821  0.76187202  0.89488186     0.05000
O1016       O  0.04570159  0.76759225  0.87970046    -0.57600
H1017       H  0.05647272  0.79554388  0.83134989     0.17900
O1018       O  0.96221307  0.80915655  0.80405048    -0.64300
H1019       H  0.95203972  0.78183632  0.85206845     0.16400
C1020       C  0.97305100  0.78036955  0.91565854     0.28600
C1021       C  0.95847877  0.76893447  0.93954319    -0.25200
C1022       C  0.95493190  0.73894409  0.94297532    -0.24500
C1023       C  0.96807972  0.72030262  0.92274970     0.40100
C1024       C  0.98323404  0.73185966  0.89895860    -0.27000
O1025       O  0.97465330  0.80977872  0.91227254    -0.58900
H1026       H  0.94891708  0.78376689  0.95491145     0.15700
O1027       O  0.96483926  0.69095261  0.92503844    -0.60300
H1028       H  0.99209237  0.71742072  0.88283421     0.14200
H1029       H  0.96052946  0.79418041  0.78888374     0.46000
H1030       H  0.95559064  0.81568318  0.90436263     0.41400
H1031       H  0.94778727  0.68628790  0.91293823     0.44900
H1032       H  0.04936375  0.78384885  0.89309088     0.36300
C1033       C  0.85430012  0.02782242  0.76861177    -0.27900
C1034       C  0.86217090  0.99863144  0.76683092     0.01700
C1035       C  0.84508978  0.97765936  0.78062975     0.29800
C1036       C  0.82104675  0.98597484  0.79687656    -0.19700
C1037       C  0.81332899  0.01522809  0.79947190    -0.29100
C1038       C  0.82988420  0.03622244  0.78462317     0.43800
C1039       C  0.88981593  0.98991328  0.75349540     0.05000
O1040       O  0.85275368  0.94904543  0.77971800    -0.57600
H1041       H  0.80864533  0.96941736  0.80789217     0.17900
O1042       O  0.82309425  0.06500349  0.78642012    -0.64300
H1043       H  0.86752507  0.04412581  0.75820446     0.16400
C1044       C  0.89058686  0.97630083  0.72636719     0.28600
C1045       C  0.91605513  0.96273958  0.71699315    -0.25200
C1046       C  0.94061568  0.96207882  0.73480739    -0.24500
C1047       C  0.94013802  0.97686617  0.76133996     0.40100
C1048       C  0.91494344  0.99098976  0.77032441    -0.27000
O1049       O  0.86606749  0.97449701  0.70983192    -0.58900
H1050       H  0.91603568  0.95115780  0.69668561     0.15700
O1051       O  0.96408389  0.97712784  0.77884454    -0.60300
H1052       H  0.91447424  0.00126976  0.79132475     0.14200
H1053       H  0.83236595  0.07176955  0.80448276     0.46000
H1054       H  0.86660617  0.99172806  0.69705453     0.41400
H1055       H  0.96000321  0.96284425  0.79434962     0.44900
H1056       H  0.84333027  0.94137664  0.76210942     0.36300
C1057       C  0.15575100  0.73712760  0.68344287    -0.27900
C1058       C  0.16926915  0.73640777  0.65644561     0.01700
C1059       C  0.16627329  0.76025566  0.63767931     0.29800
C1060       C  0.14957204  0.78424668  0.64608634    -0.19700
C1061       C  0.13561426  0.78486278  0.67321146    -0.29100
C1062       C  0.13918325  0.76079692  0.69193853     0.43800
C1063       C  0.18591741  0.71015659  0.64860239     0.05000
O1064       O  0.17948678  0.76031545  0.61112946    -0.57600
H1065       H  0.14728782  0.80219598  0.63117503     0.17900
O1066       O  0.12661977  0.75991248  0.71877917    -0.57100
H1067       H  0.15762277  0.71884601  0.69802588     0.16400
C1068       C  0.20833003  0.70017075  0.66666682     0.28600
C1069       C  0.22137356  0.67340924  0.66144387    -0.25200
C1070       C  0.21243252  0.65607901  0.63828192    -0.24500
C1071       C  0.19040305  0.66632128  0.61980178     0.40100
C1072       C  0.17725465  0.69315900  0.62509291    -0.27000
O1073       O  0.21786207  0.71671363  0.68928157    -0.58900
H1074       H  0.23870405  0.66625237  0.67553118     0.15700
O1075       O  0.18041893  0.64956286  0.59758598    -0.60300
H1076       H  0.15958315  0.70026045  0.61142292     0.14200
H1077       H  0.10991932  0.74665013  0.71680178     0.46000
H1078       H  0.21020112  0.70724549  0.70696210     0.41400
H1079       H  0.19128035  0.65610277  0.58027262     0.44900
H1080       H  0.19957511  0.76679745  0.61482636     0.36300
C1081       C  0.19971676  0.82525685  0.78584372    -0.27900
C1082       C  0.21267101  0.84529956  0.80447863     0.01700
C1083       C  0.19840975  0.87173553  0.80964849     0.29800
C1084       C  0.17125642  0.87720006  0.79719682    -0.19700
C1085       C  0.15766593  0.85646684  0.77970831    -0.29100
C1086       C  0.17247719  0.83050946  0.77371238     0.43800
C1087       C  0.23969229  0.83725108  0.82014975     0.05000
O1088       O  0.21045462  0.89212357  0.82734507    -0.57600
H1089       H  0.16054107  0.89751679  0.80172477     0.17900
O1090       O  0.16113265  0.81063707  0.75498350    -0.64300
H1091       H  0.21069602  0.80519770  0.78085064     0.16400
C1092       C  0.24099320  0.81115756  0.83574977     0.28600
C1093       C  0.26542383  0.80437197  0.85207525    -0.25200
C1094       C  0.28936411  0.82312151  0.85351305    -0.24500
C1095       C  0.28867327  0.84870971  0.83678062     0.40100
C1096       C  0.26393073  0.85562034  0.82036419    -0.27000
O1097       O  0.21761128  0.79294877  0.83680610    -0.58900
H1098       H  0.26494585  0.78448607  0.86446721     0.15700
O1099       O  0.31190745  0.86706137  0.83618270    -0.60300
H1100       H  0.26359559  0.87548714  0.80793201     0.14200
H1101       H  0.15242235  0.79549922  0.76744814     0.46000
H1102       H  0.22339803  0.77568386  0.82554566     0.41400
H1103       H  0.30757563  0.88197657  0.85089185     0.44900
H1104       H  0.20465676  0.88645796  0.84721173     0.36300
C1105       C  0.67884025  0.73742982  0.35551990    -0.27900
C1106       C  0.67725010  0.76260983  0.33831188     0.01700
C1107       C  0.65844566  0.76288025  0.31450729     0.29800
C1108       C  0.64210906  0.73861873  0.30788772    -0.19700
C1109       C  0.64311130  0.71327356  0.32495180    -0.29100
C1110       C  0.66182794  0.71291133  0.34908601     0.43800
C1111       C  0.69448217  0.78904681  0.34478081     0.05000
O1112       O  0.65535483  0.78715880  0.29766977    -0.57600
H1113       H  0.62798688  0.74024963  0.28929435     0.17900
O1114       O  0.66392558  0.68883547  0.36629870    -0.64300
H1115       H  0.69328404  0.73676175  0.37392571     0.16400
C1116       C  0.69179320  0.80361459  0.37129293     0.28600
C1117       C  0.70480426  0.83078566  0.37504911    -0.25200
C1118       C  0.72042484  0.84421098  0.35248582    -0.24500
C1119       C  0.72334414  0.82924168  0.32606651     0.40100
C1120       C  0.71094378  0.80187579  0.32265632    -0.27000
O1121       O  0.67501234  0.79234406  0.39302528    -0.58900
H1122       H  0.70208639  0.84163467  0.39557584     0.15700
O1123       O  0.73853325  0.84090473  0.30340056    -0.60300
H1124       H  0.71338423  0.79096971  0.30211074     0.14200
H1125       H  0.65108022  0.69271589  0.38302729     0.46000
H1126       H  0.68883869  0.78323018  0.40667613     0.41400
H1127       H  0.72375367  0.85005916  0.29080211     0.44900
H1128       H  0.64092576  0.79928747  0.30788727     0.36300
C1129       C  0.86780673  0.84766949  0.24822685    -0.27900
C1130       C  0.84697629  0.82998977  0.23513591     0.01700
C1131       C  0.82011604  0.82596300  0.24885288     0.29800
C1132       C  0.81381457  0.84064222  0.27449050    -0.19700
C1133       C  0.83403754  0.85943864  0.28695448    -0.29100
C1134       C  0.86147241  0.86240758  0.27396340     0.43800
C1135       C  0.85297538  0.81611148  0.20693095     0.05000
O1136       O  0.79996877  0.80757442  0.23734748    -0.57600
H1137       H  0.79265252  0.83806782  0.28418340     0.17900
O1138       O  0.88126573  0.88152096  0.28480283    -0.64300
H1139       H  0.88860282  0.85087659  0.23788962     0.16400
C1140       C  0.83637284  0.82300529  0.18228869     0.28600
C1141       C  0.84022274  0.80752319  0.15660320    -0.25200
C1142       C  0.86115470  0.78560772  0.15477529    -0.24500
C1143       C  0.87851817  0.77951431  0.17917946     0.40100
C1144       C  0.87440176  0.79479245  0.20493922    -0.27000
O1145       O  0.81616543  0.84471260  0.18317652    -0.58900
H1146       H  0.82697333  0.81280222  0.13800348     0.15700
O1147       O  0.89889039  0.75794874  0.17842605    -0.60300
H1148       H  0.88731221  0.78930971  0.22371746     0.14200
H1149       H  0.89286145  0.87019379  0.29886969     0.46000
H1150       H  0.82735012  0.86285989  0.18108348     0.41400
H1151       H  0.88862971  0.74031028  0.18499640     0.44900
H1152       H  0.78509019  0.82021945  0.22842570     0.36300
C1153       C  0.91182443  0.94169650  0.51048576    -0.27900
C1154       C  0.92073540  0.91325512  0.51584422     0.01700
C1155       C  0.91458825  0.89198424  0.49488846     0.29800
C1156       C  0.89926454  0.89938548  0.46958586    -0.19700
C1157       C  0.88989951  0.92794549  0.46462020    -0.29100
C1158       C  0.89713407  0.94923261  0.48522463     0.43800
C1159       C  0.93607869  0.90667090  0.54354689     0.05000
O1160       O  0.92307863  0.86387622  0.49899916    -0.57600
H1161       H  0.89399243  0.88257351  0.45426543     0.17900
O1162       O  0.89020171  0.97774423  0.48085362    -0.64300
H1163       H  0.91571433  0.95838937  0.52632120     0.16400
C1164       C  0.95823881  0.92497996  0.55367447     0.28600
C1165       C  0.97070746  0.92023623  0.58083091    -0.25200
C1166       C  0.96193169  0.89710549  0.59841485    -0.24500
C1167       C  0.94038227  0.87822648  0.58806304     0.40100
C1168       C  0.92736919  0.88333357  0.56105862    -0.27000
O1169       O  0.96872967  0.94691497  0.53659457    -0.58900
H1170       H  0.98790230  0.93445603  0.58783618     0.15700
O1171       O  0.93108670  0.85539870  0.60459287    -0.60300
H1172       H  0.90999918  0.86933779  0.55409636     0.14200
H1173       H  0.87545567  0.98239006  0.49571927     0.46000
H1174       H  0.96377249  0.96507340  0.54680012     0.41400
H1175       H  0.94167079  0.83835883  0.59705848     0.44900
H1176       H  0.94384090  0.86338852  0.49361331     0.36300
C1177       C  0.73785234  0.11413786  0.44635944    -0.27900
C1178       C  0.73933138  0.11369585  0.47662582     0.01700
C1179       C  0.75430115  0.09099954  0.49043219     0.29800
C1180       C  0.76614108  0.06834046  0.47394274    -0.19700
C1181       C  0.76309298  0.06798769  0.44365720    -0.29100
C1182       C  0.74960316  0.09172879  0.42994422     0.43800
C1183       C  0.72229005  0.13544450  0.49297943     0.05000
O1184       O  0.75553669  0.08965876  0.52001766    -0.57600
H1185       H  0.77640378  0.05035626  0.48495084     0.17900
O1186       O  0.74701371  0.09290843  0.40043043    -0.64300
H1187       H  0.72663462  0.13159393  0.43540349     0.16400
C1188       C  0.73532321  0.15637019  0.51074356     0.28600
C1189       C  0.71848385  0.17870357  0.52268954    -0.25200
C1190       C  0.68866963  0.18072062  0.51678058    -0.24500
C1191       C  0.67554766  0.15862365  0.50041955     0.40100
C1192       C  0.69232256  0.13650793  0.48860410    -0.27000
O1193       O  0.76459888  0.15600998  0.51544781    -0.58900
H1194       H  0.72905851  0.19530558  0.53525146     0.15700
O1195       O  0.64636326  0.15879453  0.49508487    -0.60300
H1196       H  0.68192555  0.12037065  0.47528442     0.14200
H1197       H  0.76564049  0.10090760  0.39342207     0.46000
H1198       H  0.77312864  0.16631685  0.49866109     0.41400
H1199       H  0.63759566  0.14815429  0.51153652     0.44900
H1200       H  0.77493933  0.09715400  0.52511988     0.36300
C1201       C  0.08060343  0.48039725  0.71842170    -0.27900
C1202       C  0.10374217  0.48674634  0.73684151     0.01700
C1203       C  0.10215131  0.47871451  0.76616620     0.29800
C1204       C  0.07792457  0.46370069  0.77657263    -0.19700
C1205       C  0.05556668  0.45573527  0.75773441    -0.29100
C1206       C  0.05669092  0.46489705  0.72861798     0.43800
C1207       C  0.13100817  0.49768039  0.72424806     0.05000
O1208       O  0.12459786  0.48467336  0.78454250    -0.57600
H1209       H  0.07742274  0.45679444  0.79897155     0.17900
O1210       O  0.03501567  0.45788715  0.70968933    -0.64300
H1211       H  0.08176444  0.48622145  0.69573662     0.16400
C1212       C  0.15340026  0.47814946  0.71794295     0.28600
C1213       C  0.17839263  0.48775552  0.70402204    -0.25200
C1214       C  0.18159422  0.51686287  0.69595091    -0.24500
C1215       C  0.15934114  0.53661931  0.70268742     0.40100
C1216       C  0.13413228  0.52690693  0.71668914    -0.27000
O1217       O  0.15074412  0.44941692  0.72477224    -0.58900
H1218       H  0.19520955  0.47219348  0.69907102     0.15700
O1219       O  0.16149316  0.56509082  0.69471785    -0.60300
H1220       H  0.11680230  0.54202954  0.72116010     0.14200
H1221       H  0.01981349  0.47271475  0.71270471     0.46000
H1222       H  0.14117093  0.44055647  0.70781331     0.41400
H1223       H  0.15322115  0.56613966  0.67496730     0.44900
H1224       H  0.13668923  0.46695887  0.78473530     0.36300
C1225       C  0.78206258  0.20207255  0.82970382    -0.27900
C1226       C  0.80628432  0.21104185  0.84560972     0.01700
C1227       C  0.81700755  0.19285030  0.86769788     0.29800
C1228       C  0.80374854  0.16619149  0.87332173    -0.19700
C1229       C  0.78018623  0.15685236  0.85669078    -0.29100
C1230       C  0.76910824  0.17526733  0.83501067     0.43800
C1231       C  0.82104834  0.23860001  0.83794793     0.05000
O1232       O  0.84089950  0.20054832  0.88341616    -0.57600
H1233       H  0.81239444  0.15243109  0.89024157     0.17900
O1234       O  0.74533367  0.16746357  0.81914260    -0.64300
H1235       H  0.77314892  0.21592485  0.81300404     0.16400
C1236       C  0.82940411  0.24424036  0.80920500     0.28600
C1237       C  0.84487394  0.26923721  0.80245715    -0.25200
C1238       C  0.85320302  0.28888397  0.82404457    -0.24500
C1239       C  0.84385272  0.28387904  0.85268126     0.40100
C1240       C  0.82777906  0.25898834  0.85937948    -0.27000
O1241       O  0.82364796  0.22482427  0.78764024    -0.58900
H1242       H  0.85148763  0.27252024  0.78020715     0.15700
O1243       O  0.85114792  0.30246854  0.87447432    -0.60300
H1244       H  0.82110915  0.25527354  0.88153636     0.14200
H1245       H  0.72849128  0.17532991  0.82985593     0.46000
H1246       H  0.84172494  0.21350364  0.78525173     0.41400
H1247       H  0.86952400  0.29480428  0.88249476     0.44900
H1248       H  0.85766471  0.19315128  0.87226464     0.36300
C1249       C  0.89772823  0.48953955  0.92557209    -0.27900
C1250       C  0.90227673  0.51716706  0.91366625     0.01700
C1251       C  0.91239923  0.51967863  0.88514975     0.29800
C1252       C  0.91918603  0.49498866  0.86937366    -0.19700
C1253       C  0.91558818  0.46729537  0.88136153    -0.29100
C1254       C  0.90425843  0.46460376  0.90952103     0.43800
C1255       C  0.89752012  0.54358816  0.93097882     0.05000
O1256       O  0.91608570  0.54632292  0.87263151    -0.57600
H1257       H  0.92748854  0.49753327  0.84759153     0.17900
O1258       O  0.90040717  0.43789763  0.92182700    -0.64300
H1259       H  0.88978568  0.48736033  0.94751020     0.16400
C1260       C  0.86963555  0.55218924  0.93941604     0.28600
C1261       C  0.86560984  0.57839497  0.95403078    -0.25200
C1262       C  0.88923089  0.59650519  0.96051909    -0.24500
C1263       C  0.91717446  0.58786430  0.95134611     0.40100
C1264       C  0.92106491  0.56158383  0.93702711    -0.27000
O1265       O  0.84607812  0.53569051  0.93241518    -0.58900
H1266       H  0.84387418  0.58440404  0.96040963     0.15700
O1267       O  0.94099996  0.60473217  0.95628967    -0.60300
H1268       H  0.94262626  0.55535755  0.93021118     0.14200
H1269       H  0.91928738  0.43299164  0.93076708     0.46000
H1270       H  0.84234675  0.52356705  0.94972840     0.41400
H1271       H  0.94204926  0.61805147  0.93947432     0.44900
H1272       H  0.89708351  0.55114017  0.86390165     0.36300
C1273       C  0.80724841  0.36330139  0.67965569    -0.27900
C1274       C  0.79001080  0.34041943  0.68979961     0.01700
C1275       C  0.80060534  0.32299178  0.71255228     0.29800
C1276       C  0.82803203  0.32820035  0.72428159    -0.19700
C1277       C  0.84527163  0.35109479  0.71416101    -0.29100
C1278       C  0.83454119  0.36879088  0.69170756     0.43800
C1279       C  0.76207709  0.33367865  0.67516755     0.05000
O1280       O  0.78426295  0.30086632  0.72364284    -0.57600
H1281       H  0.83556401  0.31464097  0.74188728     0.17900
O1282       O  0.85070406  0.39124432  0.68105213    -0.64300
H1283       H  0.79979711  0.37663725  0.66186840     0.16400
C1284       C  0.74060497  0.35487332  0.67045222     0.28600
C1285       C  0.71572518  0.34831690  0.65416692    -0.25200
C1286       C  0.71182918  0.32068562  0.64221324    -0.24500
C1287       C  0.73282211  0.29912907  0.64848460     0.40100
C1288       C  0.75754815  0.30582001  0.66445581    -0.27000
O1289       O  0.74356199  0.38189625  0.68211326    -0.58900
H1290       H  0.69994120  0.36518013  0.65018760     0.15700
O1291       O  0.73001500  0.27143910  0.63846412    -0.60300
H1292       H  0.77375343  0.28919886  0.66778547     0.14200
H1293       H  0.86197832  0.38293408  0.66482995     0.46000
H1294       H  0.74805926  0.39481747  0.66557203     0.41400
H1295       H  0.71672992  0.26175555  0.65226297     0.44900
H1296       H  0.77061810  0.31017270  0.73731117     0.36300
C1297       C  0.02929087  0.42248217  0.95211865    -0.27900
C1298       C  0.05229910  0.40529789  0.96216924     0.01700
C1299       C  0.06303859  0.38311332  0.94428509     0.29800
C1300       C  0.05026735  0.37789163  0.91737498    -0.19700
C1301       C  0.02766288  0.39544607  0.90717245    -0.29100
C1302       C  0.01750055  0.41820194  0.92461688     0.43800
C1303       C  0.06630857  0.41197433  0.99028932     0.05000
O1304       O  0.08647044  0.36685882  0.95255162    -0.57600
H1305       H  0.05853232  0.36049549  0.90410259     0.17900
O1306       O  0.99518769  0.43557689  0.91552626    -0.64300
H1307       H  0.02049942  0.43946142  0.96557708     0.16400
C1308       C  0.07539202  0.44027192  0.99630863     0.28600
C1309       C  0.09157011  0.44579897  0.02103350    -0.25200
C1310       C  0.09984113  0.42344513  0.04006305    -0.24500
C1311       C  0.08899929  0.39544900  0.03524747     0.40100
C1312       C  0.07233482  0.38990853  0.01048297    -0.27000
O1313       O  0.07101276  0.46223733  0.97677782    -0.58900
H1314       H  0.09915625  0.46767389  0.02426253     0.15700
O1315       O  0.09622188  0.37298671  0.05324679    -0.60300
H1316       H  0.06498623  0.36809072  0.00649263     0.14200
H1317       H  0.00454912  0.45341439  0.90817383     0.46000
H1318       H  0.05642607  0.47509067  0.98582728     0.41400
H1319       H  0.08099283  0.37280623  0.06836150     0.44900
H1320       H  0.10361447  0.37862745  0.94731068     0.36300
C1321       C  0.00014637  0.57130427  0.05675110    -0.27900
C1322       C  0.00969834  0.56735974  0.08534227     0.01700
C1323       C  0.99267300  0.57898680  0.10794686     0.29800
C1324       C  0.96797501  0.59565663  0.10168771    -0.19700
C1325       C  0.95937760  0.60073392  0.07299399    -0.29100
C1326       C  0.97513568  0.58727843  0.05053867     0.43800
C1327       C  0.03828962  0.55297066  0.09101867     0.05000
O1328       O  0.00031728  0.57479768  0.13628481    -0.57600
H1329       H  0.95620007  0.60556698  0.11932655     0.17900
O1330       O  0.96693212  0.59043249  0.02219692    -0.64300
H1331       H  0.01274447  0.56301181  0.03887277     0.16400
C1332       C  0.04691372  0.52772470  0.07617018     0.28600
C1333       C  0.07472567  0.51613248  0.08042029    -0.25200
C1334       C  0.09429037  0.52889535  0.09974025    -0.24500
C1335       C  0.08553730  0.55358370  0.11507790     0.40100
C1336       C  0.05801814  0.56559272  0.11040216    -0.27000
O1337       O  0.02787606  0.51346241  0.05851930    -0.58900
H1338       H  0.08078028  0.49662774  0.06902852     0.15700
O1339       O  0.10393208  0.56647198  0.13433680    -0.60300
H1340       H  0.05241215  0.58533024  0.12156730     0.14200
H1341       H  0.95028932  0.57719071  0.01968401     0.46000
H1342       H  0.03615932  0.51484325  0.03876617     0.41400
H1343       H  0.11268373  0.58286145  0.12361814     0.44900
H1344       H  0.99109635  0.55631611  0.14197714     0.36300
C1345       C  0.40574853  0.51124267  0.25518179    -0.27900
C1346       C  0.38634347  0.52495636  0.23618240     0.01700
C1347       C  0.38863769  0.55488196  0.23164726     0.29800
C1348       C  0.41090446  0.57039577  0.24467708    -0.19700
C1349       C  0.43161164  0.55664636  0.26225787    -0.29100
C1350       C  0.42839488  0.52684592  0.26813693     0.43800
C1351       C  0.36437832  0.50825737  0.21993475     0.05000
O1352       O  0.36879415  0.56921696  0.21477984    -0.57600
H1353       H  0.41223555  0.59338172  0.24040781     0.17900
O1354       O  0.44768284  0.51255064  0.28558111    -0.64300
H1355       H  0.40399701  0.48823252  0.25909269     0.16400
C1356       C  0.36499773  0.50802125  0.18951429     0.28600
C1357       C  0.34197335  0.49609202  0.17403700    -0.25200
C1358       C  0.31805853  0.48405138  0.18837854    -0.24500
C1359       C  0.31829594  0.48263288  0.21888751     0.40100
C1360       C  0.34138440  0.49472512  0.23444367    -0.27000
O1361       O  0.38822809  0.51931413  0.17481629    -0.58900
H1362       H  0.34258565  0.49679254  0.15062304     0.15700
O1363       O  0.29554945  0.47073622  0.23375089    -0.60300
H1364       H  0.34071834  0.49465178  0.25785520     0.14200
H1365       H  0.46272422  0.50494875  0.27232062     0.46000
H1366       H  0.38055209  0.53592786  0.16358854     0.41400
H1367       H  0.28202069  0.48698249  0.23733135     0.44900
H1368       H  0.37971945  0.57642071  0.19775949     0.36300
C1369       C  0.26662442  0.58190522  0.00328509    -0.27900
C1370       C  0.25147090  0.60789245  0.00696228     0.01700
C1371       C  0.22537616  0.60788179  0.02268129     0.29800
C1372       C  0.21543004  0.58221331  0.03553673    -0.19700
C1373       C  0.23178575  0.55670798  0.03355047    -0.29100
C1374       C  0.25708801  0.55650375  0.01657775     0.43800
C1375       C  0.26610726  0.63517872  0.99905239     0.05000
O1376       O  0.21055492  0.63314622  0.02721162    -0.57600
H1377       H  0.19612909  0.58274193  0.04883965     0.17900
O1378       O  0.27359819  0.53197092  0.01429560    -0.64300
H1379       H  0.28693615  0.58175083  0.99155924     0.16400
C1380       C  0.28998836  0.64412585  0.01537995     0.28600
C1381       C  0.30597477  0.66816686  0.00682128    -0.25200
C1382       C  0.29839744  0.68432588  0.98209009    -0.24500
C1383       C  0.27342849  0.67609209  0.96643917     0.40100
C1384       C  0.25761988  0.65148745  0.97487487    -0.27000
O1385       O  0.29825248  0.62901360  0.03957831    -0.58900
H1386       H  0.32463760  0.67391819  0.01969140     0.15700
O1387       O  0.26439301  0.69161333  0.94280870    -0.60300
H1388       H  0.23902006  0.64489217  0.96231904     0.14200
H1389       H  0.26415981  0.52034771  0.99903384     0.46000
H1390       H  0.28783829  0.63833998  0.05581996     0.41400
H1391       H  0.25081242  0.70627304  0.95057498     0.44900
H1392       H  0.21853420  0.64106735  0.04542243     0.36300
C1393       C  0.26138718  0.41101338  0.50188315    -0.27900
C1394       C  0.24858714  0.38752920  0.51618051     0.01700
C1395       C  0.24798046  0.38681391  0.54653219     0.29800
C1396       C  0.25837805  0.41025077  0.56226145    -0.19700
C1397       C  0.26961369  0.43465824  0.54809805    -0.29100
C1398       C  0.27196468  0.43455813  0.51768814     0.43800
C1399       C  0.23263909  0.36535077  0.49993877     0.05000
O1400       O  0.23659325  0.36346689  0.56091487    -0.57600
H1401       H  0.25680498  0.40972386  0.58563811     0.17900
O1402       O  0.28295999  0.45796082  0.50315160    -0.64300
H1403       H  0.26186806  0.41171185  0.47847857     0.16400
C1404       C  0.20224846  0.36607483  0.49977896     0.28600
C1405       C  0.18670962  0.34233243  0.48972976    -0.25200
C1406       C  0.20111234  0.31771043  0.47951044    -0.24500
C1407       C  0.23157218  0.31783095  0.47767698     0.40100
C1408       C  0.24719174  0.34154789  0.48816089    -0.27000
O1409       O  0.18764088  0.38970350  0.51015734    -0.58900
H1410       H  0.16328453  0.34282872  0.49070799     0.15700
O1411       O  0.24629351  0.29399587  0.46807279    -0.60300
H1412       H  0.27061521  0.34076260  0.48842007     0.14200
H1413       H  0.26647321  0.47153487  0.50099322     0.46000
H1414       H  0.17999486  0.38374642  0.52930419     0.41400
H1415       H  0.24994381  0.29772731  0.44726648     0.44900
H1416       H  0.21696990  0.36956460  0.56708940     0.36300
C1417       C  0.02185026  0.27140554  0.59068919    -0.27900
C1418       C  0.01860632  0.25151677  0.61333952     0.01700
C1419       C  0.02915528  0.22319104  0.61006258     0.29800
C1420       C  0.04338277  0.21529285  0.58443719    -0.19700
C1421       C  0.04795878  0.23570876  0.56236439    -0.29100
C1422       C  0.03649527  0.26375956  0.56541806     0.43800
C1423       C  0.00721087  0.26197755  0.64123507     0.05000
O1424       O  0.02583659  0.20328800  0.63185498    -0.57600
H1425       H  0.05199804  0.19362076  0.58237820     0.17900
O1426       O  0.04008159  0.28410359  0.54408401    -0.64300
H1427       H  0.01396841  0.29332170  0.59310743     0.16400
C1428       C  0.02651017  0.26887933  0.66357699     0.28600
C1429       C  0.01661944  0.28379054  0.68786351    -0.25200
C1430       C  0.98738043  0.29176043  0.69052899    -0.24500
C1431       C  0.96774246  0.28354194  0.66876492     0.40100
C1432       C  0.97781656  0.26903391  0.64412631    -0.27000
O1433       O  0.05549901  0.26313090  0.66078302    -0.58900
H1434       H  0.03208414  0.28985424  0.70433991     0.15700
O1435       O  0.93924378  0.29169774  0.67017835    -0.60300
H1436       H  0.96289517  0.26424876  0.62675625     0.14200
H1437       H  0.02461206  0.28012897  0.52981611     0.46000
H1438       H  0.05876308  0.24508708  0.67192509     0.41400
H1439       H  0.92884637  0.27446358  0.67754788     0.44900
H1440       H  0.04526921  0.20116315  0.64068077     0.36300
C1441       C  0.00695288  0.08536179  0.38845504    -0.27900
C1442       C  0.98634846  0.07919965  0.41000495     0.01700
C1443       C  0.99166043  0.08824363  0.43848741     0.29800
C1444       C  0.01665594  0.10374572  0.44490269    -0.19700
C1445       C  0.03682155  0.11110381  0.42325195    -0.29100
C1446       C  0.03197417  0.10129105  0.39483642     0.43800
C1447       C  0.95904800  0.06395268  0.40278660     0.05000
O1448       O  0.97206539  0.08284855  0.46013924    -0.57600
H1449       H  0.01970616  0.11082900  0.46697798     0.17900
O1450       O  0.05096733  0.10778876  0.37298602    -0.64300
H1451       H  0.00345010  0.07811824  0.36650837     0.16400
C1452       C  0.94041335  0.07435789  0.38098264     0.28600
C1453       C  0.91394852  0.06055238  0.37579188    -0.25200
C1454       C  0.90556312  0.03644871  0.39225748    -0.24500
C1455       C  0.92456570  0.02560015  0.41350819     0.40100
C1456       C  0.95094663  0.03937360  0.41869247    -0.27000
O1457       O  0.94721953  0.09883273  0.36564664    -0.58900
H1458       H  0.89970383  0.06902306  0.35920260     0.15700
O1459       O  0.91787545  0.00114405  0.42891149    -0.60300
H1460       H  0.96524408  0.03072531  0.43514526     0.14200
H1461       H  0.04358727  0.12598788  0.36432778     0.46000
H1462       H  0.95391812  0.09190519  0.34651412     0.41400
H1463       H  0.92386894  0.98482947  0.41641737     0.44900
H1464       H  0.95978234  0.10040102  0.46112527     0.36300
C1465       C  0.13566245  0.32300900  0.30780040    -0.27900
C1466       C  0.15808852  0.31240205  0.29021052     0.01700
C1467       C  0.17531871  0.28944237  0.30061758     0.29800
C1468       C  0.17008915  0.27758372  0.32797313    -0.19700
C1469       C  0.14742455  0.28783936  0.34538209    -0.29100
C1470       C  0.13022391  0.31088490  0.33514501     0.43800
C1471       C  0.16488745  0.32675119  0.26214137     0.05000
O1472       O  0.19730550  0.27828242  0.28412677    -0.57600
H1473       H  0.18338677  0.25968808  0.33527264     0.17900
O1474       O  0.10837002  0.32199634  0.35184139    -0.64300
H1475       H  0.12269335  0.34115960  0.30060652     0.16400
C1476       C  0.14363578  0.33201798  0.24088311     0.28600
C1477       C  0.15080272  0.34720046  0.21544543    -0.25200
C1478       C  0.17892684  0.35797983  0.21105294    -0.24500
C1479       C  0.20033864  0.35160859  0.23207964     0.40100
C1480       C  0.19317812  0.33622709  0.25709690    -0.27000
O1481       O  0.11590153  0.32220842  0.24467337    -0.58900
H1482       H  0.13396624  0.35156521  0.19975098     0.15700
O1483       O  0.22847554  0.36039278  0.22860921    -0.60300
H1484       H  0.20982158  0.33253722  0.27317791     0.14200
H1485       H  0.11687954  0.33905369  0.36152594     0.46000
H1486       H  0.10428010  0.33956348  0.24950213     0.41400
H1487       H  0.23131442  0.37607869  0.24286327     0.44900
H1488       H  0.18827324  0.26268864  0.27263818     0.36300
C1489       C  0.07861036  0.04921250  0.53138345    -0.27900
C1490       C  0.09566271  0.03930098  0.55455997     0.01700
C1491       C  0.11837818  0.05705561  0.56446184     0.29800
C1492       C  0.12345116  0.08406488  0.55149251    -0.19700
C1493       C  0.10556967  0.09441141  0.52917143    -0.29100
C1494       C  0.08318391  0.07648094  0.51895133     0.43800
C1495       C  0.08815450  0.01156737  0.56952749     0.05000
O1496       O  0.13519991  0.04869909  0.58742610    -0.57600
H1497       H  0.14090636  0.09736618  0.55954941     0.17900
O1498       O  0.06570327  0.08526511  0.49664133    -0.64300
H1499       H  0.06136733  0.03583486  0.52301813     0.16400
C1500       C  0.05956124  0.00629094  0.57866048     0.28600
C1501       C  0.05296967  0.98149285  0.59466227    -0.25200
C1502       C  0.07443776  0.96124651  0.60246526    -0.24500
C1503       C  0.10276451  0.96552242  0.59176254     0.40100
C1504       C  0.10945324  0.99061791  0.57570263    -0.27000
O1505       O  0.03791809  0.02585595  0.57311721    -0.58900
H1506       H  0.03085124  0.97875427  0.60192947     0.15700
O1507       O  0.12440644  0.94622774  0.59805826    -0.60300
H1508       H  0.13147315  0.99389027  0.56837800     0.14200
H1509       H  0.07559156  0.07865661  0.47881192     0.46000
H1510       H  0.03784761  0.03907122  0.58992940     0.41400
H1511       H  0.12609489  0.93386781  0.58067380     0.44900
H1512       H  0.12401818  0.05422155  0.60486682     0.36300
C1513       C  0.39390373  0.00851642  0.07575919    -0.27900
C1514       C  0.40278210  0.98080825  0.08480764     0.01700
C1515       C  0.41831139  0.97803730  0.11081679     0.29800
C1516       C  0.42623218  0.00253567  0.12631888    -0.19700
C1517       C  0.41827543  0.03037639  0.11700523    -0.29100
C1518       C  0.40142018  0.03321730  0.09176275     0.43800
C1519       C  0.39784639  0.95490186  0.06648903     0.05000
O1520       O  0.42611690  0.95134499  0.12120993    -0.57600
H1521       H  0.43850551  0.99960436  0.14602941     0.17900
O1522       O  0.39297651  0.05994022  0.08205066    -0.64300
H1523       H  0.38198606  0.01110306  0.05577450     0.16400
C1524       C  0.37006517  0.94658263  0.05737037     0.28600
C1525       C  0.36638810  0.92084672  0.04176726    -0.25200
C1526       C  0.39021048  0.90305392  0.03470549    -0.24500
C1527       C  0.41806471  0.91192475  0.04353965     0.40100
C1528       C  0.42160763  0.93756574  0.05899602    -0.27000
O1529       O  0.34626926  0.96271494  0.06472548    -0.58900
H1530       H  0.34471015  0.91479121  0.03535547     0.15700
O1531       O  0.44218289  0.89588734  0.03713261    -0.60300
H1532       H  0.44322023  0.94386933  0.06542416     0.14200
H1533       H  0.40965304  0.06735559  0.07076211     0.46000
H1534       H  0.34120231  0.97374487  0.04701582     0.41400
H1535       H  0.44567378  0.88374021  0.05449148     0.44900
H1536       H  0.40919702  0.94455923  0.13253543     0.36300
C1537       C  0.24103641  0.14280581  0.32785357    -0.27900
C1538       C  0.26187086  0.16426177  0.32225230     0.01700
C1539       C  0.25608788  0.19277699  0.33115926     0.29800
C1540       C  0.23072178  0.19913369  0.34616832    -0.19700
C1541       C  0.21102231  0.17732025  0.35398796    -0.29100
C1542       C  0.21593373  0.14904258  0.34381428     0.43800
C1543       C  0.29002778  0.15684822  0.30829205     0.05000
O1544       O  0.27581791  0.21445858  0.32679126    -0.57600
H1545       H  0.22743654  0.22118607  0.35321866     0.17900
O1546       O  0.19750526  0.12694985  0.35088060    -0.64300
H1547       H  0.24456886  0.12090807  0.32052458     0.16400
C1548       C  0.30680410  0.13308925  0.31771099     0.28600
C1549       C  0.33413618  0.12789849  0.30550524    -0.25200
C1550       C  0.34543237  0.14630496  0.28412539    -0.24500
C1551       C  0.32850657  0.16984600  0.27451727     0.40100
C1552       C  0.30101124  0.17461964  0.28620794    -0.27000
O1553       O  0.29735011  0.11566341  0.33982080    -0.58900
H1554       H  0.34674639  0.10967517  0.31317310     0.15700
O1555       O  0.33805154  0.18763808  0.25275629    -0.60300
H1556       H  0.28821532  0.19243674  0.27792548     0.14200
H1557       H  0.18326854  0.12629344  0.33488245     0.46000
H1558       H  0.29220791  0.09706830  0.33059766     0.41400
H1559       H  0.34608154  0.20478935  0.26267731     0.44900
H1560       H  0.28838980  0.21413728  0.34414904     0.36300
C1561       C  0.28856785  0.29749864  0.16516163    -0.27900
C1562       C  0.31294339  0.28912969  0.14907670     0.01700
C1563       C  0.32283251  0.30731273  0.12662318     0.29800
C1564       C  0.30870542  0.33360542  0.12101282    -0.19700
C1565       C  0.28511564  0.34240293  0.13800521    -0.29100
C1566       C  0.27473194  0.32383174  0.15980170     0.43800
C1567       C  0.32864242  0.26223559  0.15714136     0.05000
O1568       O  0.34660815  0.29988682  0.11049405    -0.57600
H1569       H  0.31657946  0.34744062  0.10378589     0.17900
O1570       O  0.25068810  0.33097793  0.17565096    -0.64300
H1571       H  0.28024984  0.28353851  0.18207230     0.16400
C1572       C  0.33756828  0.25774027  0.18587833     0.28600
C1573       C  0.35293079  0.23289359  0.19335103    -0.25200
C1574       C  0.36012603  0.21189943  0.17259666    -0.24500
C1575       C  0.35062679  0.21604343  0.14386547     0.40100
C1576       C  0.33498551  0.24105102  0.13636982    -0.27000
O1577       O  0.33205175  0.27791527  0.20682886    -0.58900
H1578       H  0.35989311  0.23054742  0.21557467     0.15700
O1579       O  0.35693168  0.19621182  0.12283497    -0.60300
H1580       H  0.32793676  0.24398229  0.11422686     0.14200
H1581       H  0.23400525  0.32416884  0.16407977     0.46000
H1582       H  0.34799855  0.29212291  0.20520126     0.41400
H1583       H  0.37435071  0.20381185  0.11287314     0.44900
H1584       H  0.36293549  0.31070810  0.11911053     0.36300
C1585       C  0.57659349  0.05640031  0.00498433    -0.27900
C1586       C  0.57054360  0.08526218  0.01170350     0.01700
C1587       C  0.58063616  0.10718973  0.99296240     0.29800
C1588       C  0.59735289  0.10007319  0.96863114    -0.19700
C1589       C  0.60442913  0.07119152  0.96268451    -0.29100
C1590       C  0.59329953  0.04925380  0.98087620     0.43800
C1591       C  0.55563543  0.09194675  0.03942384     0.05000
O1592       O  0.57500348  0.13567884  0.99869625    -0.57600
H1593       H  0.60583970  0.11727865  0.95515808     0.17900
O1594       O  0.59881281  0.02064809  0.97543166    -0.64300
H1595       H  0.56942775  0.03920995  0.01921010     0.16400
C1596       C  0.53023890  0.07725175  0.04783372     0.28600
C1597       C  0.51821494  0.08197505  0.07527185    -0.25200
C1598       C  0.53100195  0.10141805  0.09460523    -0.24500
C1599       C  0.55595709  0.11658069  0.08597122     0.40100
C1600       C  0.56826817  0.11151071  0.05878091    -0.27000
O1601       O  0.51655644  0.05896164  0.02900595    -0.58900
H1602       H  0.49856057  0.07071791  0.08128874     0.15700
O1603       O  0.56926400  0.13539151  0.10449822    -0.60300
H1604       H  0.58819053  0.12243713  0.05310204     0.14200
H1605       H  0.61296612  0.01450537  0.99034821     0.46000
H1606       H  0.51871847  0.03936068  0.03746951     0.41400
H1607       H  0.56276116  0.15487291  0.09829984     0.44900
H1608       H  0.55764968  0.14050366  0.98705195     0.36300
C1609       C  0.47353739  0.22428626  0.35922886    -0.27900
C1610       C  0.50179042  0.23498965  0.36214446     0.01700
C1611       C  0.52177089  0.23061253  0.33955939     0.29800
C1612       C  0.51388038  0.21435955  0.31532511    -0.19700
C1613       C  0.48584277  0.20313522  0.31267941    -0.29100
C1614       C  0.46531449  0.20900478  0.33443684     0.43800
C1615       C  0.51130968  0.24744229  0.39008902     0.05000
O1616       O  0.54967721  0.24031266  0.34198467    -0.57600
H1617       H  0.52986967  0.21016594  0.29870450     0.17900
O1618       O  0.43777240  0.19820631  0.33260794    -0.64300
H1619       H  0.45799434  0.22731356  0.37650778     0.16400
C1620       C  0.52258284  0.27563307  0.39205280     0.28600
C1621       C  0.53462650  0.28529315  0.41819978    -0.25200
C1622       C  0.53645487  0.26673313  0.44218754    -0.24500
C1623       C  0.52404086  0.23897961  0.44045742     0.40100
C1624       C  0.51133823  0.22970192  0.41471631    -0.27000
O1625       O  0.52204812  0.29369762  0.36846774    -0.58900
H1626       H  0.54421821  0.30659819  0.41910891     0.15700
O1627       O  0.52556193  0.22015079  0.46338595    -0.60300
H1628       H  0.50287065  0.20793313  0.41350505     0.14200
H1629       H  0.42604180  0.21408022  0.32416320     0.46000
H1630       H  0.54259193  0.29697826  0.36319782     0.41400
H1631       H  0.50969578  0.22602747  0.47656226     0.44900
H1632       H  0.55134623  0.25635215  0.32780855     0.36300
C1633       C  0.61034992  0.02261994  0.21958465    -0.27900
C1634       C  0.61473964  0.01448384  0.24851629     0.01700
C1635       C  0.59389832  0.02184523  0.26940717     0.29800
C1636       C  0.56933529  0.03756540  0.26139253    -0.19700
C1637       C  0.56505056  0.04617102  0.23259328    -0.29100
C1638       C  0.58555355  0.03819363  0.21148871     0.43800
C1639       C  0.64268768  0.00197291  0.25779174     0.05000
O1640       O  0.59859926  0.01584650  0.29809281    -0.57600
H1641       H  0.55388878  0.04365822  0.27793580     0.17900
O1642       O  0.58274372  0.04747814  0.18344351    -0.64300
H1643       H  0.62663104  0.01768175  0.20347044     0.16400
C1644       C  0.64428564  0.97437793  0.27059214     0.28600
C1645       C  0.66989536  0.96543372  0.28426739    -0.25200
C1646       C  0.69365619  0.98416598  0.28606748    -0.24500
C1647       C  0.69253299  0.01103604  0.27170871     0.40100
C1648       C  0.66725227  0.01964939  0.25751853    -0.27000
O1649       O  0.62071150  0.95641303  0.27036743    -0.58900
H1650       H  0.67050530  0.94465043  0.29509800     0.15700
O1651       O  0.71556805  0.02962911  0.27259591    -0.60300
H1652       H  0.66622990  0.04096597  0.24781436     0.14200
H1653       H  0.57241872  0.03170723  0.17337324     0.46000
H1654       H  0.61357245  0.95591929  0.29058743     0.41400
H1655       H  0.72886844  0.02294294  0.25716630     0.44900
H1656       H  0.58481705  0.00020538  0.30303169     0.36300
loop_ 
_geom_bond_atom_site_label_1 
_geom_bond_atom_site_label_2 
_geom_bond_distance 
_geom_bond_site_symmetry_2 
_ccdc_geom_bond_type 
Zr1           O2   2.439       .  S
Zr1           O3   2.425       .  S
Zr1           O4   2.414       .  S
Zr1           O7   2.435       .  S
Zr1           O9   2.376       .  S
Zr1          O10   2.377       .  S
Zr1          O11   2.406       .  S
Zr1          O12   2.398       .  S
O2           H58   0.991       .  S
O2           H66   0.990       .  S
O3           C23   1.283       .  A
O4           C25   1.282       .  A
O5          Zr15   2.436       .  S
O5           C24   1.286       .  A
O6          Zr14   2.458       .  S
O6           C25   1.290       .  A
O7           C24   1.285       .  A
O8          Zr16   2.435       .  S
O8           C23   1.284       .  A
O9          Zr14   2.394       .  S
O9          Zr16   2.374       .  S
O10         Zr15   2.394       .  S
O10         Zr16   2.367       .  S
O10          H45   0.966       .  S
O11         Zr14   2.413       .  S
O11         Zr31   2.382       .  S
O11          H48   0.964       .  S
O12         Zr15   2.390       .  S
O12         Zr31   2.396       .  S
Zr13         O38   2.447       .  S
Zr13         O32   2.444       .  S
Zr13         O40   2.432       .  S
Zr13         O28   2.416       .  S
Zr13         O19   2.403       .  S
Zr13         O20   2.407       .  S
Zr13         O21   2.374       .  S
Zr13         O22   2.383       .  S
Zr14         O33   2.435       .  S
Zr14         O26   2.435       .  S
Zr14         O27   2.468       .  S
Zr14         O20   2.403       .  S
Zr14         O21   2.389       .  S
Zr15         O17   2.434       .  S
Zr15         O39   2.437       .  S
Zr15         O41   2.433       .  S
Zr15         O19   2.387       .  S
Zr15         O22   2.394       .  S
Zr16         O42   2.437       .  S
Zr16         O43   2.435       .  S
Zr16         O18   2.437       .  S
Zr16         O19   2.400       .  S
Zr16         O20   2.392       .  S
O17          H54   0.990       .  S
O18          H49   0.990       .  S
O18          H63   0.990       .  S
O20          H46   0.965       .  S
O21         Zr31   2.379       .  S
O22         Zr31   2.371       .  S
O22          H47   0.966       .  S
C23        C1550   1.483       .  S
C24        C1613   1.479       .  S
C25        C1574   1.489       .  S
O26          H62   0.990       .  S
O27          C29   1.291       .  A
O28          C29   1.283       .  A
C29        C1517   1.486       .  S
O30         Zr31   2.439       .  S
O30          H59   0.990       .  S
Zr31         O34   2.437       .  S
Zr31         O35   2.439       .  S
Zr31         O36   2.422       .  S
O32          C37   1.287       .  A
O33          H50   0.990       .  S
O33          H65   0.990       .  S
O34          H51   0.990       .  S
O35          H55   0.990       .  S
O35          H64   0.990       .  S
O36          C37   1.282       .  A
C37        C1598   1.479       .  S
O38          H57   0.990       .  S
O38          H61   0.990       .  S
O39          H53   0.990       .  S
O39          H60   0.990       .  S
O40          C44   1.285       .  A
O41          C44   1.285       .  A
O42          H52   0.990       .  S
O43          H56   0.990       .  S
C44        C1637   1.477       .  S
Zr67         O68   2.439       .  S
Zr67         O69   2.440       .  S
Zr67         O70   2.404       .  S
Zr67         O73   2.437       .  S
Zr67         O75   2.378       .  S
Zr67         O76   2.376       .  S
Zr67         O77   2.411       .  S
Zr67         O78   2.400       .  S
O68         H124   0.990       .  S
O68         H132   0.990       .  S
O69          C89   1.286       .  A
O70          C91   1.281       .  A
O71         Zr81   2.426       .  S
O71          C90   1.284       .  A
O72         Zr80   2.466       .  S
O72          C91   1.291       .  A
O73          C90   1.285       .  A
O74         Zr82   2.436       .  S
O74          C89   1.285       .  A
O75         Zr80   2.390       .  S
O75         Zr82   2.375       .  S
O76         Zr81   2.394       .  S
O76         Zr82   2.371       .  S
O76         H111   0.967       .  S
O77         Zr80   2.405       .  S
O77         Zr97   2.387       .  S
O77         H114   0.965       .  S
O78         Zr81   2.386       .  S
O78         Zr97   2.399       .  S
Zr79        O104   2.443       .  S
Zr79         O98   2.434       .  S
Zr79        O106   2.435       .  S
Zr79         O94   2.407       .  S
Zr79         O85   2.399       .  S
Zr79         O86   2.407       .  S
Zr79         O87   2.376       .  S
Zr79         O88   2.375       .  S
Zr80         O99   2.436       .  S
Zr80         O92   2.435       .  S
Zr80         O93   2.455       .  S
Zr80         O86   2.406       .  S
Zr80         O87   2.391       .  S
Zr81         O83   2.436       .  S
Zr81        O105   2.438       .  S
Zr81        O107   2.429       .  S
Zr81         O85   2.389       .  S
Zr81         O88   2.389       .  S
Zr82        O108   2.435       .  S
Zr82        O109   2.435       .  S
Zr82         O84   2.436       .  S
Zr82         O85   2.400       .  S
Zr82         O86   2.395       .  S
O83         H120   0.990       .  S
O84         H115   0.991       .  S
O84         H129   0.990       .  S
O86         H112   0.966       .  S
O87         Zr97   2.372       .  S
O88         Zr97   2.370       .  S
O88         H113   0.965       .  S
C89        C1493   1.488       .  S
C90        C1421   1.476       .  S
C91        C1445   1.487       .  S
O92         H128   0.990       .  S
O93          C95   1.289       .  A
O94          C95   1.282       .  A
C95        C1541   1.488       .  S
O96         Zr97   2.438       .  S
O96         H125   0.990       .  S
Zr97        O100   2.437       .  S
Zr97        O101   2.439       .  S
Zr97        O102   2.434       .  S
O98         C103   1.285       .  A
O99         H116   0.990       .  S
O99         H131   0.990       .  S
O100        H117   0.990       .  S
O101        H121   0.990       .  S
O101        H130   0.990       .  S
O102        C103   1.284       .  A
C103       C1469   1.482       .  S
O104        H123   0.990       .  S
O104        H127   0.990       .  S
O105        H119   0.990       .  S
O105        H126   0.990       .  S
O106        C110   1.285       .  A
O107        C110   1.285       .  A
O108        H118   0.990       .  S
O109        H122   0.990       .  S
C110       C1406   1.475       .  S
Zr133       O134   2.440       .  S
Zr133       O135   2.439       .  S
Zr133       O136   2.407       .  S
Zr133       O139   2.449       .  S
Zr133       O141   2.383       .  S
Zr133       O142   2.377       .  S
Zr133       O143   2.409       .  S
Zr133       O144   2.403       .  S
O134        H190   0.990       .  S
O134        H198   0.990       .  S
O135        C155   1.286       .  A
O136        C157   1.280       .  A
O137       Zr147   2.424       .  S
O137        C156   1.284       .  A
O138       Zr146   2.465       .  S
O138        C157   1.291       .  A
O139        C156   1.286       .  A
O140       Zr148   2.420       .  S
O140        C155   1.281       .  A
O141       Zr146   2.394       .  S
O141       Zr148   2.378       .  S
O142       Zr147   2.393       .  S
O142       Zr148   2.374       .  S
O142        H177   0.966       .  S
O143       Zr146   2.405       .  S
O143       Zr163   2.398       .  S
O143        H180   0.965       .  S
O144       Zr147   2.396       .  S
O144       Zr163   2.405       .  S
Zr145       O170   2.442       .  S
Zr145       O164   2.433       .  S
Zr145       O172   2.444       .  S
Zr145       O160   2.391       .  S
Zr145       O151   2.395       .  S
Zr145       O152   2.409       .  S
Zr145       O153   2.376       .  S
Zr145       O154   2.375       .  S
Zr146       O165   2.435       .  S
Zr146       O158   2.435       .  S
Zr146       O159   2.466       .  S
Zr146       O152   2.407       .  S
Zr146       O153   2.387       .  S
Zr147       O149   2.435       .  S
Zr147       O171   2.438       .  S
Zr147       O173   2.426       .  S
Zr147       O151   2.385       .  S
Zr147       O154   2.394       .  S
Zr148       O174   2.435       .  S
Zr148       O175   2.435       .  S
Zr148       O150   2.437       .  S
Zr148       O151   2.396       .  S
Zr148       O152   2.390       .  S
O149        H186   0.990       .  S
O150        H181   0.990       .  S
O150        H195   0.990       .  S
O152        H178   0.965       .  S
O153       Zr163   2.369       .  S
O154       Zr163   2.375       .  S
O154        H179   0.964       .  S
C155       C1565   1.476       .  S
C156       C1358   1.484       .  S
C157       C1478   1.494       .  S
O158        H194   0.990       .  S
O159        C161   1.291       .  A
O160        C161   1.279       .  A
C161       C1310   1.486       .  S
O162       Zr163   2.439       .  S
O162        H191   0.990       .  S
Zr163       O166   2.437       .  S
Zr163       O167   2.442       .  S
Zr163       O168   2.444       .  S
O164        C169   1.285       .  A
O165        H182   0.990       .  S
O165        H197   0.990       .  S
O166        H183   0.990       .  S
O167        H187   0.990       .  S
O167        H196   0.990       .  S
O168        C169   1.286       .  A
C169       C1334   1.485       .  S
O170        H189   0.990       .  S
O170        H193   0.990       .  S
O171        H185   0.990       .  S
O171        H192   0.990       .  S
O172        C176   1.286       .  A
O173        C176   1.284       .  A
O174        H184   0.990       .  S
O175        H188   0.990       .  S
C176       C1373   1.474       .  S
Zr199       O200   2.442       .  S
Zr199       O201   2.437   1_655  S
Zr199       O202   2.416       .  S
Zr199       O205   2.451   1_655  S
Zr199       O207   2.384       .  S
Zr199       O208   2.378   1_655  S
Zr199       O209   2.416       .  S
Zr199       O210   2.400       .  S
O200        H256   0.991       .  S
O200        H264   0.990       .  S
O201        C221   1.284       .  A
O202        C223   1.281       .  A
O203       Zr213   2.415   1_455  S
O203        C222   1.281       .  A
O204       Zr212   2.461       .  S
O204        C223   1.289       .  A
O205        C222   1.287       .  A
O206       Zr214   2.423   1_455  S
O206        C221   1.282       .  A
O207       Zr212   2.399       .  S
O207       Zr214   2.379       .  S
O208       Zr213   2.395   1_455  S
O208       Zr214   2.381   1_455  S
O208        H243   0.966       .  S
O209       Zr212   2.413       .  S
O209       Zr229   2.390       .  S
O209        H246   0.964       .  S
O210       Zr213   2.388       .  S
O210       Zr229   2.400       .  S
Zr211       O236   2.445       .  S
Zr211       O230   2.433       .  S
Zr211       O238   2.442       .  S
Zr211       O226   2.409       .  S
Zr211       O217   2.396       .  S
Zr211       O218   2.407       .  S
Zr211       O219   2.377       .  S
Zr211       O220   2.375       .  S
Zr212       O231   2.435       .  S
Zr212       O224   2.435       .  S
Zr212       O225   2.463       .  S
Zr212       O218   2.406       .  S
Zr212       O219   2.392       .  S
Zr213       O215   2.435   1_655  S
Zr213       O237   2.436   1_655  S
Zr213       O239   2.421       .  S
Zr213       O217   2.385       .  S
Zr213       O220   2.392       .  S
Zr214       O240   2.436   1_655  S
Zr214       O241   2.435       .  S
Zr214       O216   2.438       .  S
Zr214       O217   2.396       .  S
Zr214       O218   2.388       .  S
O215        H252   0.990       .  S
O216        H247   0.990       .  S
O216        H261   0.990       .  S
O218        H244   0.965       .  S
O219       Zr229   2.372       .  S
O220       Zr229   2.371       .  S
O220        H245   0.965       .  S
C221       C1301   1.478       .  S
C222       C1205   1.479       .  S
C223       C1253   1.478       .  S
O224        H260   0.990       .  S
O225        C227   1.291       .  A
O226        C227   1.282       .  A
C227       C1238   1.489       .  S
O228       Zr229   2.439       .  S
O228        H257   0.991       .  S
Zr229       O232   2.438       .  S
Zr229       O233   2.441       .  S
Zr229       O234   2.438       .  S
O230        C235   1.285       .  A
O231        H248   0.990       .  S
O231        H263   0.990       .  S
O232        H249   0.990       .  S
O233        H253   0.990       .  S
O233        H262   0.990       .  S
O234        C235   1.285       .  A
C235       C1277   1.486       .  S
O236        H255   0.991       .  S
O236        H259   0.990       .  S
O237        H251   0.990       .  S
O237        H258   0.990       .  S
O238        C242   1.286       .  A
O239        C242   1.283       .  A
O240        H250   0.990       .  S
O241        H254   0.990       .  S
C242       C1430   1.480       .  S
Zr265       O266   2.440       .  S
Zr265       O267   2.447       .  S
Zr265       O268   2.414       .  S
Zr265       O271   2.440       .  S
Zr265       O273   2.379       .  S
Zr265       O274   2.376       .  S
Zr265       O275   2.413       .  S
Zr265       O276   2.407       .  S
O266        H322   0.990       .  S
O266        H330   0.990       .  S
O267        C287   1.287       .  A
O268        C289   1.282       .  A
O269       Zr279   2.427       .  S
O269        C288   1.284       .  A
O270       Zr278   2.467       .  S
O270        C289   1.291       .  A
O271        C288   1.286       .  A
O272       Zr280   2.433       .  S
O272        C287   1.284       .  A
O273       Zr278   2.396       .  S
O273       Zr280   2.375       .  S
O274       Zr279   2.394       .  S
O274       Zr280   2.371       .  S
O274        H309   0.967       .  S
O275       Zr278   2.404       .  S
O275       Zr295   2.387       .  S
O275        H312   0.966       .  S
O276       Zr279   2.386       .  S
O276       Zr295   2.397       .  S
Zr277       O302   2.439       .  S
Zr277       O296   2.440   1_565  S
Zr277       O304   2.450   1_565  S
Zr277       O292   2.420       .  S
Zr277       O283   2.400       .  S
Zr277       O284   2.412       .  S
Zr277       O285   2.378       .  S
Zr277       O286   2.380   1_565  S
Zr278       O297   2.436       .  S
Zr278       O290   2.433       .  S
Zr278       O291   2.467       .  S
Zr278       O284   2.411       .  S
Zr278       O285   2.388       .  S
Zr279       O281   2.436   1_565  S
Zr279       O303   2.435       .  S
Zr279       O305   2.430   1_565  S
Zr279       O283   2.388       .  S
Zr279       O286   2.391   1_565  S
Zr280       O306   2.436       .  S
Zr280       O307   2.434       .  S
Zr280       O282   2.435       .  S
Zr280       O283   2.400       .  S
Zr280       O284   2.393       .  S
O281        H318   0.990       .  S
O282        H313   0.990       .  S
O282        H327   0.990       .  S
O284        H310   0.964       .  S
O285       Zr295   2.375       .  S
O286       Zr295   2.374   1_545  S
O286        H311   0.966       .  S
C287       C1118   1.498       .  S
C288       C1646   1.475       .  S
C289       C1133   1.479       .  S
O290        H326   0.990       .  S
O291        C293   1.291       .  A
O292        C293   1.283       .  A
C293       C1157   1.495       .  S
O294       Zr295   2.438       .  S
O294        H323   0.990   1_565  S
Zr295       O298   2.437       .  S
Zr295       O299   2.440   1_565  S
Zr295       O300   2.425   1_565  S
O296        C301   1.286       .  A
O297        H314   0.990       .  S
O297        H329   0.990       .  S
O298        H315   0.990       .  S
O299        H319   0.990       .  S
O299        H328   0.990       .  S
O300        C301   1.282       .  A
C301       C1454   1.479       .  S
O302        H321   0.990       .  S
O302        H325   0.990   1_565  S
O303        H317   0.990       .  S
O303        H324   0.990   1_565  S
O304        C308   1.287       .  A
O305        C308   1.285       .  A
O306        H316   0.990       .  S
O307        H320   0.990       .  S
C308       C1181   1.488       .  S
Zr331       O332   2.438       .  S
Zr331       O333   2.437       .  S
Zr331       O334   2.419       .  S
Zr331       O337   2.452       .  S
Zr331       O339   2.383       .  S
Zr331       O340   2.375       .  S
Zr331       O341   2.414       .  S
Zr331       O342   2.398       .  S
O332        H388   0.990       .  S
O332        H396   0.990       .  S
O333        C353   1.286       .  A
O334        C355   1.283       .  A
O335       Zr345   2.429       .  S
O335        C354   1.285       .  A
O336       Zr344   2.460       .  S
O336        C355   1.290       .  A
O337        C354   1.288       .  A
O338       Zr346   2.426       .  S
O338        C353   1.282       .  A
O339       Zr344   2.397       .  S
O339       Zr346   2.375       .  S
O340       Zr345   2.392       .  S
O340       Zr346   2.372       .  S
O340        H375   0.966       .  S
O341       Zr344   2.414       .  S
O341       Zr361   2.390       .  S
O341        H378   0.964       .  S
O342       Zr345   2.387       .  S
O342       Zr361   2.396       .  S
Zr343       O368   2.443       .  S
Zr343       O362   2.435   1_455  S
Zr343       O370   2.437   1_455  S
Zr343       O358   2.414       .  S
Zr343       O349   2.398       .  S
Zr343       O350   2.405       .  S
Zr343       O351   2.376       .  S
Zr343       O352   2.377   1_455  S
Zr344       O363   2.436       .  S
Zr344       O356   2.434       .  S
Zr344       O357   2.482       .  S
Zr344       O350   2.402       .  S
Zr344       O351   2.389       .  S
Zr345       O347   2.435   1_455  S
Zr345       O369   2.438       .  S
Zr345       O371   2.424   1_455  S
Zr345       O349   2.385       .  S
Zr345       O352   2.392   1_455  S
Zr346       O372   2.436       .  S
Zr346       O373   2.434       .  S
Zr346       O348   2.437       .  S
Zr346       O349   2.395       .  S
Zr346       O350   2.393       .  S
O347        H384   0.990       .  S
O348        H379   0.990       .  S
O348        H393   0.990       .  S
O350        H376   0.965       .  S
O351       Zr361   2.379       .  S
O352       Zr361   2.371   1_655  S
O352        H377   0.965       .  S
C353       C1085   1.486       .  S
C354       C1013   1.488       .  S
C355       C1061   1.496       .  S
O356        H392   0.990       .  S
O357        C359   1.294       .  A
O358        C359   1.283       .  A
C359       C1502   1.500       .  S
O360       Zr361   2.439   1_655  S
O360        H389   0.990       .  S
Zr361       O364   2.435       .  S
Zr361       O365   2.442   1_455  S
Zr361       O366   2.428   1_455  S
O362        C367   1.286       .  A
O363        H380   0.990       .  S
O363        H395   0.990       .  S
O364        H381   0.990       .  S
O365        H385   0.990       .  S
O365        H394   0.990       .  S
O366        C367   1.283       .  A
C367       C1166   1.485       .  S
O368        H387   0.990       .  S
O368        H391   0.990       .  S
O369        H383   0.990   1_455  S
O369        H390   0.990       .  S
O370        C374   1.285       .  A
O371        C374   1.284       .  A
O372        H382   0.990       .  S
O373        H386   0.990       .  S
C374       C1046   1.473       .  S
Zr397       O398   2.440       .  S
Zr397       O399   2.445   1_556  S
Zr397       O400   2.413       .  S
Zr397       O403   2.432   1_556  S
Zr397       O405   2.375       .  S
Zr397       O406   2.376   1_556  S
Zr397       O407   2.412       .  S
Zr397       O408   2.405       .  S
O398        H454   0.990       .  S
O398        H462   0.990       .  S
O399        C419   1.287       .  A
O400        C421   1.281       .  A
O401       Zr411   2.410   1_554  S
O401        C420   1.281       .  A
O402       Zr410   2.471       .  S
O402        C421   1.291       .  A
O403        C420   1.285       .  A
O404       Zr412   2.424   1_554  S
O404        C419   1.283       .  A
O405       Zr410   2.391       .  S
O405       Zr412   2.378       .  S
O406       Zr411   2.389   1_554  S
O406       Zr412   2.370   1_554  S
O406        H441   0.967       .  S
O407       Zr410   2.407       .  S
O407       Zr427   2.395       .  S
O407        H444   0.965       .  S
O408       Zr411   2.386       .  S
O408       Zr427   2.404       .  S
Zr409       O434   2.446       .  S
Zr409       O428   2.425       .  S
Zr409       O436   2.447       .  S
Zr409       O424   2.408       .  S
Zr409       O415   2.397       .  S
Zr409       O416   2.406       .  S
Zr409       O417   2.383       .  S
Zr409       O418   2.376       .  S
Zr410       O429   2.436       .  S
Zr410       O422   2.434       .  S
Zr410       O423   2.463       .  S
Zr410       O416   2.408       .  S
Zr410       O417   2.393       .  S
Zr411       O413   2.436       .  S
Zr411       O435   2.438   1_556  S
Zr411       O437   2.421       .  S
Zr411       O415   2.384       .  S
Zr411       O418   2.385       .  S
Zr412       O438   2.437   1_556  S
Zr412       O439   2.435       .  S
Zr412       O414   2.435       .  S
Zr412       O415   2.399       .  S
Zr412       O416   2.389       .  S
O413        H450   0.990   1_556  S
O414        H445   0.990       .  S
O414        H459   0.990       .  S
O416        H442   0.966       .  S
O417       Zr427   2.371       .  S
O418       Zr427   2.376       .  S
O418        H443   0.966       .  S
C419       C1526   1.497       .  S
C420        C941   1.474       .  S
C421        C965   1.490       .  S
O422        H458   0.990       .  S
O423        C425   1.291       .  A
O424        C425   1.282       .  A
C425       C1094   1.495       .  S
O426       Zr427   2.440       .  S
O426        H455   0.990       .  S
Zr427       O430   2.438       .  S
Zr427       O431   2.441       .  S
Zr427       O432   2.440       .  S
O428        C433   1.284       .  A
O429        H446   0.990       .  S
O429        H461   0.990       .  S
O430        H447   0.990       .  S
O431        H451   0.990       .  S
O431        H460   0.990       .  S
O432        C433   1.286       .  A
C433        C998   1.491       .  S
O434        H453   0.990       .  S
O434        H457   0.990       .  S
O435        H449   0.990       .  S
O435        H456   0.990       .  S
O436        C440   1.286       .  A
O437        C440   1.284       .  A
O438        H448   0.990       .  S
O439        H452   0.990       .  S
C440       C1382   1.494       .  S
Zr463       O464   2.440       .  S
Zr463       O465   2.443       .  S
Zr463       O466   2.417       .  S
Zr463       O469   2.442       .  S
Zr463       O471   2.380       .  S
Zr463       O472   2.378       .  S
Zr463       O473   2.412       .  S
Zr463       O474   2.404       .  S
O464        H520   0.990       .  S
O464        H528   0.990       .  S
O465        C485   1.286       .  A
O466        C487   1.282       .  A
O467       Zr477   2.416       .  S
O467        C486   1.283       .  A
O468       Zr476   2.451       .  S
O468        C487   1.288       .  A
O469        C486   1.286       .  A
O470       Zr478   2.420       .  S
O470        C485   1.281       .  A
O471       Zr476   2.392       .  S
O471       Zr478   2.373       .  S
O472       Zr477   2.391       .  S
O472       Zr478   2.368       .  S
O472        H507   0.967       .  S
O473       Zr476   2.406       .  S
O473       Zr493   2.392       .  S
O473        H510   0.966       .  S
O474       Zr477   2.388       .  S
O474       Zr493   2.402       .  S
Zr475       O500   2.443       .  S
Zr475       O494   2.429       .  S
Zr475       O502   2.448       .  S
Zr475       O490   2.422       .  S
Zr475       O481   2.399       .  S
Zr475       O482   2.405       .  S
Zr475       O483   2.381       .  S
Zr475       O484   2.381       .  S
Zr476       O495   2.435       .  S
Zr476       O488   2.434       .  S
Zr476       O489   2.465       .  S
Zr476       O482   2.401       .  S
Zr476       O483   2.385       .  S
Zr477       O479   2.435       .  S
Zr477       O501   2.437       .  S
Zr477       O503   2.417       .  S
Zr477       O481   2.383       .  S
Zr477       O484   2.390       .  S
Zr478       O504   2.435       .  S
Zr478       O505   2.434       .  S
Zr478       O480   2.436       .  S
Zr478       O481   2.398       .  S
Zr478       O482   2.379       .  S
O479        H516   0.990       .  S
O480        H511   0.990       .  S
O480        H525   0.990       .  S
O482        H508   0.965       .  S
O483       Zr493   2.375       .  S
O484       Zr493   2.373       .  S
O484        H509   0.965       .  S
C485        C902   1.482       .  S
C486       C1397   1.478       .  S
C487        C917   1.476       .  S
O488        H524   0.990       .  S
O489        C491   1.291       .  A
O490        C491   1.285       .  A
C491        C989   1.492       .  S
O492       Zr493   2.436       .  S
O492        H521   0.990       .  S
Zr493       O496   2.435       .  S
Zr493       O497   2.441       .  S
Zr493       O498   2.438       .  S
O494        C499   1.285       .  A
O495        H512   0.990       .  S
O495        H527   0.990       .  S
O496        H513   0.990       .  S
O497        H517   0.990       .  S
O497        H526   0.990       .  S
O498        C499   1.285       .  A
C499       C1070   1.482       .  S
O500        H519   0.991       .  S
O500        H523   0.990       .  S
O501        H515   0.991       .  S
O501        H522   0.990       .  S
O502        C506   1.287       .  A
O503        C506   1.283       .  A
O504        H514   0.990       .  S
O505        H518   0.990       .  S
C506       C1214   1.480       .  S
Zr529       O530   2.439       .  S
Zr529       O531   2.442       .  S
Zr529       O532   2.417       .  S
Zr529       O535   2.454       .  S
Zr529       O537   2.386       .  S
Zr529       O538   2.379       .  S
Zr529       O539   2.416       .  S
Zr529       O540   2.400       .  S
O530        H586   0.990       .  S
O530        H594   0.990       .  S
O531        C551   1.286       .  A
O532        C553   1.282       .  A
O533       Zr543   2.410       .  S
O533        C552   1.282       .  A
O534       Zr542   2.473       .  S
O534        C553   1.292       .  A
O535        C552   1.288       .  A
O536       Zr544   2.416       .  S
O536        C551   1.281       .  A
O537       Zr542   2.401       .  S
O537       Zr544   2.376       .  S
O538       Zr543   2.393       .  S
O538       Zr544   2.374       .  S
O538        H573   0.967       .  S
O539       Zr542   2.414       .  S
O539       Zr559   2.387       .  S
O539        H576   0.965       .  S
O540       Zr543   2.386       .  S
O540       Zr559   2.399       .  S
Zr541       O566   2.444       .  S
Zr541       O560   2.424       .  S
Zr541       O568   2.435       .  S
Zr541       O556   2.394       .  S
Zr541       O547   2.392       .  S
Zr541       O548   2.406       .  S
Zr541       O549   2.376       .  S
Zr541       O550   2.375       .  S
Zr542       O561   2.435       .  S
Zr542       O554   2.433       .  S
Zr542       O555   2.492       .  S
Zr542       O548   2.407       .  S
Zr542       O549   2.385       .  S
Zr543       O545   2.435       .  S
Zr543       O567   2.437       .  S
Zr543       O569   2.424       .  S
Zr543       O547   2.381       .  S
Zr543       O550   2.386       .  S
Zr544       O570   2.436       .  S
Zr544       O571   2.435       .  S
Zr544       O546   2.437       .  S
Zr544       O547   2.396       .  S
Zr544       O548   2.379       .  S
O545        H582   0.990       .  S
O546        H577   0.990       .  S
O546        H591   0.990       .  S
O548        H574   0.965       .  S
O549       Zr559   2.372       .  S
O550       Zr559   2.372       .  S
O550        H575   0.965       .  S
C551        C926   1.484       .  S
C552       C1349   1.489       .  S
C553        C845   1.483       .  S
O554        H590   0.990       .  S
O555        C557   1.296       .  A
O556        C557   1.280       .  A
C557       C1109   1.501       .  S
O558       Zr559   2.439       .  S
O558        H587   0.990       .  S
Zr559       O562   2.436       .  S
Zr559       O563   2.441       .  S
Zr559       O564   2.434       .  S
O560        C565   1.284       .  A
O561        H578   0.990       .  S
O561        H593   0.990       .  S
O562        H579   0.990       .  S
O563        H583   0.990       .  S
O563        H592   0.990       .  S
O564        C565   1.284       .  A
C565        C869   1.477       .  S
O566        H585   0.990       .  S
O566        H589   0.990       .  S
O567        H581   0.990       .  S
O567        H588   0.990       .  S
O568        C572   1.285       .  A
O569        C572   1.283       .  A
O570        H580   0.990       .  S
O571        H584   0.990       .  S
C572        C950   1.470       .  S
Zr595       O596   2.439       .  S
Zr595       O597   2.435       .  S
Zr595       O598   2.412       .  S
Zr595       O601   2.450       .  S
Zr595       O603   2.388       .  S
Zr595       O604   2.374       .  S
Zr595       O605   2.412       .  S
Zr595       O606   2.401       .  S
O596        H652   0.990       .  S
O596        H660   0.990       .  S
O597        C617   1.285       .  A
O598        C619   1.280       .  A
O599       Zr609   2.417       .  S
O599        C618   1.283       .  A
O600       Zr608   2.474       .  S
O600        C619   1.292       .  A
O601        C618   1.288       .  A
O602       Zr610   2.422       .  S
O602        C617   1.282       .  A
O603       Zr608   2.397       .  S
O603       Zr610   2.376       .  S
O604       Zr609   2.386       .  S
O604       Zr610   2.370       .  S
O604        H639   0.967       .  S
O605       Zr608   2.406       .  S
O605       Zr625   2.394       .  S
O605        H642   0.965       .  S
O606       Zr609   2.388       .  S
O606       Zr625   2.406       .  S
Zr607       O632   2.442       .  S
Zr607       O626   2.435       .  S
Zr607       O634   2.459       .  S
Zr607       O622   2.414       .  S
Zr607       O613   2.397       .  S
Zr607       O614   2.415       .  S
Zr607       O615   2.385       .  S
Zr607       O616   2.374       .  S
Zr608       O627   2.438       .  S
Zr608       O620   2.434       .  S
Zr608       O621   2.470       .  S
Zr608       O614   2.409       .  S
Zr608       O615   2.392       .  S
Zr609       O611   2.434       .  S
Zr609       O633   2.438       .  S
Zr609       O635   2.408       .  S
Zr609       O613   2.383       .  S
Zr609       O616   2.390       .  S
Zr610       O636   2.436       .  S
Zr610       O637   2.435       .  S
Zr610       O612   2.436       .  S
Zr610       O613   2.397       .  S
Zr610       O614   2.385       .  S
O611        H648   0.990       .  S
O612        H643   0.990       .  S
O612        H657   0.990       .  S
O614        H640   0.965       .  S
O615       Zr625   2.372       .  S
O616       Zr625   2.376       .  S
O616        H641   0.965       .  S
C617        C821   1.491       .  S
C618       C1190   1.489       .  S
C619       C1286   1.499       .  S
O620        H656   0.990       .  S
O621        C623   1.292       .  A
O622        C623   1.283       .  A
C623        C893   1.484       .  S
O624       Zr625   2.440       .  S
O624        H653   0.990       .  S
Zr625       O628   2.437       .  S
Zr625       O629   2.442       .  S
Zr625       O630   2.440       .  S
O626        C631   1.286       .  A
O627        H644   0.990       .  S
O627        H659   0.990       .  S
O628        H645   0.990       .  S
O629        H649   0.990       .  S
O629        H658   0.989       .  S
O630        C631   1.285       .  A
C631        C854   1.496       .  S
O632        H651   0.990       .  S
O632        H655   0.990       .  S
O633        H647   0.990       .  S
O633        H654   0.990       .  S
O634        C638   1.289       .  A
O635        C638   1.281       .  A
O636        H646   0.990       .  S
O637        H650   0.990       .  S
C638       C1622   1.479       .  S
Zr661       O662   2.439       .  S
Zr661       O663   2.448   1_545  S
Zr661       O664   2.402       .  S
Zr661       O667   2.433   1_545  S
Zr661       O669   2.374       .  S
Zr661       O670   2.377   1_545  S
Zr661       O671   2.412       .  S
Zr661       O672   2.400       .  S
O662        H718   0.990       .  S
O662        H726   0.991       .  S
O663        C683   1.288       .  A
O664        C685   1.280       .  A
O665       Zr675   2.439   1_565  S
O665        C684   1.287       .  A
O666       Zr674   2.465       .  S
O666        C685   1.291       .  A
O667        C684   1.285       .  A
O668       Zr676   2.430   1_565  S
O668        C683   1.283       .  A
O669       Zr674   2.390       .  S
O669       Zr676   2.373       .  S
O670       Zr675   2.393   1_565  S
O670       Zr676   2.373   1_565  S
O670        H705   0.966       .  S
O671       Zr674   2.407       .  S
O671       Zr691   2.391       .  S
O671        H708   0.965       .  S
O672       Zr675   2.380       .  S
O672       Zr691   2.399       .  S
Zr673       O698   2.441       .  S
Zr673       O692   2.436       .  S
Zr673       O700   2.437       .  S
Zr673       O688   2.419       .  S
Zr673       O679   2.404       .  S
Zr673       O680   2.410       .  S
Zr673       O681   2.376       .  S
Zr673       O682   2.381       .  S
Zr674       O693   2.436       .  S
Zr674       O686   2.435       .  S
Zr674       O687   2.460       .  S
Zr674       O680   2.410       .  S
Zr674       O681   2.397       .  S
Zr675       O677   2.434       .  S
Zr675       O699   2.437   1_545  S
Zr675       O701   2.424       .  S
Zr675       O679   2.394       .  S
Zr675       O682   2.397       .  S
Zr676       O702   2.437   1_545  S
Zr676       O703   2.435   1_545  S
Zr676       O678   2.437       .  S
Zr676       O679   2.397       .  S
Zr676       O680   2.389       .  S
O677        H714   0.990       .  S
O678        H709   0.990   1_545  S
O678        H723   0.990       .  S
O680        H706   0.965       .  S
O681       Zr691   2.375       .  S
O682       Zr691   2.378       .  S
O682        H707   0.965       .  S
C683        C974   1.483       .  S
C684        C797   1.484       .  S
C685       C1589   1.483       .  S
O686        H722   0.990       .  S
O687        C689   1.289       .  A
O688        C689   1.282       .  A
C689        C830   1.480       .  S
O690       Zr691   2.439       .  S
O690        H719   0.990       .  S
Zr691       O694   2.438       .  S
Zr691       O695   2.440       .  S
Zr691       O696   2.426       .  S
O692        C697   1.284       .  A
O693        H710   0.990       .  S
O693        H725   0.990       .  S
O694        H711   0.990       .  S
O695        H715   0.991       .  S
O695        H724   0.989       .  S
O696        C697   1.282       .  A
C697       C1229   1.481       .  S
O698        H717   0.990       .  S
O698        H721   0.991       .  S
O699        H713   0.990       .  S
O699        H720   0.990       .  S
O700        C704   1.285       .  A
O701        C704   1.284       .  A
O702        H712   0.990       .  S
O703        H716   0.991   1_565  S
C704       C1037   1.484       .  S
Zr727       O728   2.440       .  S
Zr727       O729   2.432   1_554  S
Zr727       O730   2.423       .  S
Zr727       O733   2.454   1_554  S
Zr727       O735   2.388       .  S
Zr727       O736   2.378   1_554  S
Zr727       O737   2.413       .  S
Zr727       O738   2.397       .  S
O728        H784   0.990       .  S
O728        H792   0.990       .  S
O729        C749   1.284       .  A
O730        C751   1.283       .  A
O731       Zr741   2.410   1_556  S
O731        C750   1.282       .  A
O732       Zr740   2.469       .  S
O732        C751   1.292       .  A
O733        C750   1.288       .  A
O734       Zr742   2.435   1_556  S
O734        C749   1.284       .  A
O735       Zr740   2.400       .  S
O735       Zr742   2.376       .  S
O736       Zr741   2.389   1_556  S
O736       Zr742   2.375   1_556  S
O736        H771   0.967       .  S
O737       Zr740   2.409       .  S
O737       Zr757   2.388       .  S
O737        H774   0.964       .  S
O738       Zr741   2.388       .  S
O738       Zr757   2.395       .  S
Zr739       O764   2.445       .  S
Zr739       O758   2.439       .  S
Zr739       O766   2.447       .  S
Zr739       O754   2.407       .  S
Zr739       O745   2.399       .  S
Zr739       O746   2.412       .  S
Zr739       O747   2.384       .  S
Zr739       O748   2.373       .  S
Zr740       O759   2.435       .  S
Zr740       O752   2.435       .  S
Zr740       O753   2.471       .  S
Zr740       O746   2.406       .  S
Zr740       O747   2.392       .  S
Zr741       O743   2.435   1_554  S
Zr741       O765   2.436   1_554  S
Zr741       O767   2.417       .  S
Zr741       O745   2.383       .  S
Zr741       O748   2.386       .  S
Zr742       O768   2.437   1_554  S
Zr742       O769   2.435       .  S
Zr742       O744   2.437       .  S
Zr742       O745   2.405       .  S
Zr742       O746   2.392       .  S
O743        H780   0.990       .  S
O744        H775   0.990       .  S
O744        H789   0.989       .  S
O746        H772   0.966       .  S
O747       Zr757   2.375       .  S
O748       Zr757   2.378       .  S
O748        H773   0.965       .  S
C749       C1262   1.495       .  S
C750       C1022   1.487       .  S
C751       C1325   1.492       .  S
O752        H788   0.990       .  S
O753        C755   1.292       .  A
O754        C755   1.281       .  A
C755        C878   1.492       .  S
O756       Zr757   2.440       .  S
O756        H785   0.990       .  S
Zr757       O760   2.437       .  S
Zr757       O761   2.440       .  S
Zr757       O762   2.421       .  S
O758        C763   1.286       .  A
O759        H776   0.990       .  S
O759        H791   0.989       .  S
O760        H777   0.990       .  S
O761        H781   0.990       .  S
O761        H790   0.990       .  S
O762        C763   1.282       .  A
C763       C1142   1.481       .  S
O764        H783   0.990       .  S
O764        H787   0.990       .  S
O765        H779   0.990       .  S
O765        H786   0.990       .  S
O766        C770   1.286       .  A
O767        C770   1.282       .  A
O768        H778   0.990       .  S
O769        H782   0.990       .  S
C770        C806   1.480       .  S
C793        C794   1.403       .  A
C793        C798   1.403       .  A
C793        H803   1.084       .  S
C794        C799   1.478   1_556  S
C794        C795   1.405       .  A
C795        C796   1.399       .  A
C795        O800   1.372       .  S
C796        C797   1.406       .  A
C796        H801   1.084       .  S
C797        C798   1.412       .  A
C798        O802   1.371       .  S
C799        C804   1.408       .  A
C799        C808   1.399   1_554  A
O800        H816   0.992   1_556  S
O802        H813   0.992       .  S
C804        C805   1.406       .  A
C804        O809   1.371       .  S
C805        C806   1.406       .  A
C805        H810   1.084       .  S
C806        C807   1.411   1_554  A
C807        C808   1.396       .  A
C807        O811   1.372       .  S
C808        H812   1.084       .  S
O809        H814   0.991       .  S
O811        H815   0.992       .  S
C817        C818   1.401       .  A
C817        C822   1.402       .  A
C817        H827   1.083       .  S
C818        C823   1.487       .  S
C818        C819   1.411       .  A
C819        C820   1.400       .  A
C819        O824   1.372       .  S
C820        C821   1.406       .  A
C820        H825   1.083       .  S
C821        C822   1.417       .  A
C822        O826   1.371       .  S
C823        C828   1.413       .  A
C823        C832   1.400       .  A
O824        H840   0.992       .  S
O826        H837   0.992       .  S
C828        C829   1.409       .  A
C828        O833   1.372       .  S
C829        C830   1.404       .  A
C829        H834   1.083       .  S
C830        C831   1.411       .  A
C831        C832   1.393       .  A
C831        O835   1.372       .  S
C832        H836   1.084       .  S
O833        H838   0.992       .  S
O835        H839   0.992       .  S
C841        C842   1.400       .  A
C841        C846   1.397       .  A
C841        H851   1.084       .  S
C842        C847   1.487       .  S
C842        C843   1.413       .  A
C843        C844   1.408       .  A
C843        O848   1.371       .  S
C844        C845   1.404       .  A
C844        H849   1.083       .  S
C845        C846   1.412       .  A
C846        O850   1.372       .  S
C847        C852   1.409       .  A
C847        C856   1.401       .  A
O848        H864   0.992       .  S
O850        H861   0.992       .  S
C852        C853   1.404       .  A
C852        O857   1.372       .  S
C853        C854   1.409       .  A
C853        H858   1.083       .  S
C854        C855   1.417       .  A
C855        C856   1.403       .  A
C855        O859   1.371       .  S
C856        H860   1.084       .  S
O857        H862   0.992       .  S
O859        H863   0.992       .  S
C865        C866   1.406       .  A
C865        C870   1.399       .  A
C865        H875   1.083       .  S
C866        C871   1.492       .  S
C866        C867   1.413       .  A
C867        C868   1.401       .  A
C867        O872   1.371       .  S
C868        C869   1.402       .  A
C868        H873   1.084       .  S
C869        C870   1.410       .  A
C870        O874   1.373       .  S
C871        C876   1.409       .  A
C871        C880   1.408       .  A
O872        H888   0.992       .  S
O874        H885   0.992       .  S
C876        C877   1.397       .  A
C876        O881   1.372       .  S
C877        C878   1.409       .  A
C877        H882   1.084       .  S
C878        C879   1.412       .  A
C879        C880   1.406       .  A
C879        O883   1.371       .  S
C880        H884   1.083       .  S
O881        H886   0.992       .  S
O883        H887   0.992       .  S
C889        C890   1.407       .  A
C889        C894   1.406       .  A
C889        H899   1.083       .  S
C890        C895   1.488       .  S
C890        C891   1.407       .  A
C891        C892   1.400       .  A
C891        O896   1.373       .  S
C892        C893   1.406       .  A
C892        H897   1.084       .  S
C893        C894   1.411       .  A
C894        O898   1.371       .  S
C895        C900   1.412       .  A
C895        C904   1.402       .  A
O896        H912   0.992       .  S
O898        H909   0.992       .  S
C900        C901   1.401       .  A
C900        O905   1.371       .  S
C901        C902   1.402       .  A
C901        H906   1.084       .  S
C902        C903   1.414       .  A
C903        C904   1.402       .  A
C903        O907   1.372       .  S
C904        H908   1.084       .  S
O905        H910   0.992       .  S
O907        H911   0.992       .  S
C913        C914   1.403       .  A
C913        C918   1.398       .  A
C913        H923   1.084       .  S
C914        C919   1.484       .  S
C914        C915   1.411       .  A
C915        C916   1.403       .  A
C915        O920   1.372       .  S
C916        C917   1.403       .  A
C916        H921   1.084       .  S
C917        C918   1.410       .  A
C918        O922   1.373       .  S
C919        C924   1.407       .  A
C919        C928   1.405       .  A
O920        H936   0.992       .  S
O922        H933   0.992       .  S
C924        C925   1.400       .  A
C924        O929   1.371       .  S
C925        C926   1.408       .  A
C925        H930   1.084       .  S
C926        C927   1.410       .  A
C927        C928   1.401       .  A
C927        O931   1.372       .  S
C928        H932   1.084       .  S
O929        H934   0.992       .  S
O931        H935   0.992       .  S
C937        C938   1.399       .  A
C937        C942   1.392       .  A
C937        H947   1.084       .  S
C938        C943   1.473       .  S
C938        C939   1.407       .  A
C939        C940   1.403       .  A
C939        O944   1.371       .  S
C940        C941   1.405       .  A
C940        H945   1.084       .  S
C941        C942   1.411       .  A
C942        O946   1.372       .  S
C943        C948   1.406       .  A
C943        C952   1.403       .  A
O944        H960   0.992       .  S
O946        H957   0.992       .  S
C948        C949   1.398       .  A
C948        O953   1.372       .  S
C949        C950   1.404       .  A
C949        H954   1.084       .  S
C950        C951   1.407       .  A
C951        C952   1.399       .  A
C951        O955   1.372       .  S
C952        H956   1.084       .  S
O953        H958   0.992       .  S
O955        H959   0.992       .  S
C961        C962   1.403       .  A
C961        C966   1.397       .  A
C961        H971   1.083       .  S
C962        C967   1.495       .  S
C962        C963   1.414       .  A
C963        C964   1.408       .  A
C963        O968   1.371       .  S
C964        C965   1.407       .  A
C964        H969   1.083       .  S
C965        C966   1.415       .  A
C966        O970   1.372       .  S
C967        C972   1.412       .  A
C967        C976   1.407       .  A
O968        H984   0.992       .  S
O970        H981   0.992       .  S
C972        C973   1.401       .  A
C972        O977   1.372       .  S
C973        C974   1.403       .  A
C973        H978   1.083       .  S
C974        C975   1.410       .  A
C975        C976   1.406       .  A
C975        O979   1.371       .  S
C976        H980   1.083       .  S
O977        H982   0.992       .  S
O979        H983   0.992       .  S
C985        C986   1.407       .  A
C985        C990   1.409       .  A
C985        H995   1.083       .  S
C986        C991   1.485       .  S
C986        C987   1.404       .  A
C987        C988   1.393       .  A
C987        O992   1.372       .  S
C988        C989   1.409       .  A
C988        H993   1.082       .  S
C989        C990   1.414       .  A
C990        O994   1.371       .  S
C991        C996   1.407       .  A
C991       C1000   1.402       .  A
O992       H1008   0.992       .  S
O994       H1005   0.992       .  S
C996        C997   1.405       .  A
C996       O1001   1.371       .  S
C997        C998   1.409       .  A
C997       H1002   1.083       .  S
C998        C999   1.415       .  A
C999       C1000   1.398       .  A
C999       O1003   1.372       .  S
C1000      H1004   1.084       .  S
O1001      H1006   0.992       .  S
O1003      H1007   0.992       .  S
C1009      C1010   1.400       .  A
C1009      C1014   1.397       .  A
C1009      H1019   1.084       .  S
C1010      C1015   1.482       .  S
C1010      C1011   1.408   1_655  A
C1011      C1012   1.409       .  A
C1011      O1016   1.371       .  S
C1012      C1013   1.409       .  A
C1012      H1017   1.083       .  S
C1013      C1014   1.412   1_455  A
C1014      O1018   1.372       .  S
C1015      C1020   1.405       .  A
C1015      C1024   1.405       .  A
O1016      H1032   0.992       .  S
O1018      H1029   0.992       .  S
C1020      C1021   1.396       .  A
C1020      O1025   1.372       .  S
C1021      C1022   1.407       .  A
C1021      H1026   1.084       .  S
C1022      C1023   1.412       .  A
C1023      C1024   1.408       .  A
C1023      O1027   1.371       .  S
C1024      H1028   1.083       .  S
O1025      H1030   0.992       .  S
O1027      H1031   0.992       .  S
C1033      C1034   1.402   1_545  A
C1033      C1038   1.404       .  A
C1033      H1043   1.083       .  S
C1034      C1039   1.475       .  S
C1034      C1035   1.404       .  A
C1035      C1036   1.395       .  A
C1035      O1040   1.372       .  S
C1036      C1037   1.406   1_565  A
C1036      H1041   1.084       .  S
C1037      C1038   1.414       .  A
C1038      O1042   1.372       .  S
C1039      C1044   1.407       .  A
C1039      C1048   1.400       .  A
O1040      H1056   0.992       .  S
O1042      H1053   0.992       .  S
C1044      C1045   1.402       .  A
C1044      O1049   1.371       .  S
C1045      C1046   1.404       .  A
C1045      H1050   1.084       .  S
C1046      C1047   1.408       .  A
C1047      C1048   1.398       .  A
C1047      O1051   1.372       .  S
C1048      H1052   1.084   1_565  S
O1049      H1054   0.992       .  S
O1051      H1055   0.992       .  S
C1057      C1058   1.396       .  A
C1057      C1062   1.394       .  A
C1057      H1067   1.084       .  S
C1058      C1063   1.484       .  S
C1058      C1059   1.409       .  A
C1059      C1060   1.408       .  A
C1059      O1064   1.371       .  S
C1060      C1061   1.411       .  A
C1060      H1065   1.083       .  S
C1061      C1062   1.418       .  A
C1062      O1066   1.371       .  S
C1063      C1068   1.408       .  A
C1063      C1072   1.404       .  A
O1064      H1080   0.992       .  S
O1066      H1077   0.992       .  S
C1068      C1069   1.399       .  A
C1068      O1073   1.373       .  S
C1069      C1070   1.404       .  A
C1069      H1074   1.084       .  S
C1070      C1071   1.411       .  A
C1071      C1072   1.405       .  A
C1071      O1075   1.371       .  S
C1072      H1076   1.083       .  S
O1073      H1078   0.992       .  S
O1075      H1079   0.992       .  S
C1081      C1082   1.405       .  A
C1081      C1086   1.400       .  A
C1081      H1091   1.083       .  S
C1082      C1087   1.491       .  S
C1082      C1083   1.410       .  A
C1083      C1084   1.404       .  A
C1083      O1088   1.372       .  S
C1084      C1085   1.408       .  A
C1084      H1089   1.084       .  S
C1085      C1086   1.411       .  A
C1086      O1090   1.372       .  S
C1087      C1092   1.406       .  A
C1087      C1096   1.408       .  A
O1088      H1104   0.992       .  S
O1090      H1101   0.992       .  S
C1092      C1093   1.394       .  A
C1092      O1097   1.373       .  S
C1093      C1094   1.410       .  A
C1093      H1098   1.083       .  S
C1094      C1095   1.413       .  A
C1095      C1096   1.409       .  A
C1095      O1099   1.371       .  S
C1096      H1100   1.083       .  S
O1097      H1102   0.992       .  S
O1099      H1103   0.992       .  S
C1105      C1106   1.411       .  A
C1105      C1110   1.415       .  A
C1105      H1115   1.083       .  S
C1106      C1111   1.493       .  S
C1106      C1107   1.404       .  A
C1107      C1108   1.390       .  A
C1107      O1112   1.373       .  S
C1108      C1109   1.413       .  A
C1108      H1113   1.083       .  S
C1109      C1110   1.413       .  A
C1110      O1114   1.371       .  S
C1111      C1116   1.407       .  A
C1111      C1120   1.405       .  A
O1112      H1128   0.992       .  S
O1114      H1125   0.992       .  S
C1116      C1117   1.407       .  A
C1116      O1121   1.371       .  S
C1117      C1118   1.412       .  A
C1117      H1122   1.083       .  S
C1118      C1119   1.414       .  A
C1119      C1120   1.402       .  A
C1119      O1123   1.371       .  S
C1120      H1124   1.084       .  S
O1121      H1126   0.992       .  S
O1123      H1127   0.992       .  S
C1129      C1130   1.405       .  A
C1129      C1134   1.405       .  A
C1129      H1139   1.083       .  S
C1130      C1135   1.482       .  S
C1130      C1131   1.406       .  A
C1131      C1132   1.400       .  A
C1131      O1136   1.373       .  S
C1132      C1133   1.405       .  A
C1132      H1137   1.082       .  S
C1133      C1134   1.410       .  A
C1134      O1138   1.371       .  S
C1135      C1140   1.410       .  A
C1135      C1144   1.400       .  A
O1136      H1152   0.992       .  S
O1138      H1149   0.991       .  S
C1140      C1141   1.401       .  A
C1140      O1145   1.372       .  S
C1141      C1142   1.404       .  A
C1141      H1146   1.084       .  S
C1142      C1143   1.413       .  A
C1143      C1144   1.401       .  A
C1143      O1147   1.372       .  S
C1144      H1148   1.084       .  S
O1145      H1150   0.992       .  S
O1147      H1151   0.992       .  S
C1153      C1154   1.401       .  A
C1153      C1158   1.395       .  A
C1153      H1163   1.083       .  S
C1154      C1159   1.496       .  S
C1154      C1155   1.414       .  A
C1155      C1156   1.410       .  A
C1155      O1160   1.371       .  S
C1156      C1157   1.409       .  A
C1156      H1161   1.083       .  S
C1157      C1158   1.415       .  A
C1158      O1162   1.372       .  S
C1159      C1164   1.413       .  A
C1159      C1168   1.407       .  A
O1160      H1176   0.992       .  S
O1162      H1173   0.992       .  S
C1164      C1165   1.399       .  A
C1164      O1169   1.373       .  S
C1165      C1166   1.403       .  A
C1165      H1170   1.084       .  S
C1166      C1167   1.412       .  A
C1167      C1168   1.406       .  A
C1167      O1171   1.372       .  S
C1168      H1172   1.083       .  S
O1169      H1174   0.992       .  S
O1171      H1175   0.992       .  S
C1177      C1178   1.402       .  A
C1177      C1182   1.397       .  A
C1177      H1187   1.084       .  S
C1178      C1183   1.486       .  S
C1178      C1179   1.409       .  A
C1179      C1180   1.409       .  A
C1179      O1184   1.371       .  S
C1180      C1181   1.408       .  A
C1180      H1185   1.083       .  S
C1181      C1182   1.412       .  A
C1182      O1186   1.372       .  S
C1183      C1188   1.410       .  A
C1183      C1192   1.401       .  A
O1184      H1200   0.992       .  S
O1186      H1197   0.992       .  S
C1188      C1189   1.408       .  A
C1188      O1193   1.371       .  S
C1189      C1190   1.408       .  A
C1189      H1194   1.083       .  S
C1190      C1191   1.413       .  A
C1191      C1192   1.396       .  A
C1191      O1195   1.372       .  S
C1192      H1196   1.084       .  S
O1193      H1198   0.992       .  S
O1195      H1199   0.992       .  S
C1201      C1202   1.401       .  A
C1201      C1206   1.400       .  A
C1201      H1211   1.084       .  S
C1202      C1207   1.478       .  S
C1202      C1203   1.407       .  A
C1203      C1204   1.403       .  A
C1203      O1208   1.371       .  S
C1204      C1205   1.404       .  A
C1204      H1209   1.083       .  S
C1205      C1206   1.412       .  A
C1206      O1210   1.372       .  S
C1207      C1212   1.404       .  A
C1207      C1216   1.404       .  A
O1208      H1224   0.992       .  S
O1210      H1221   0.992       .  S
C1212      C1213   1.395       .  A
C1212      O1217   1.372       .  S
C1213      C1214   1.405       .  A
C1213      H1218   1.084       .  S
C1214      C1215   1.411       .  A
C1215      C1216   1.406       .  A
C1215      O1219   1.371       .  S
C1216      H1220   1.083       .  S
O1217      H1222   0.992       .  S
O1219      H1223   0.992       .  S
C1225      C1226   1.405       .  A
C1225      C1230   1.400       .  A
C1225      H1235   1.083       .  S
C1226      C1231   1.490       .  S
C1226      C1227   1.411       .  A
C1227      C1228   1.403       .  A
C1227      O1232   1.372       .  S
C1228      C1229   1.404       .  A
C1228      H1233   1.084       .  S
C1229      C1230   1.410       .  A
C1230      O1234   1.372       .  S
C1231      C1236   1.408       .  A
C1231      C1240   1.407       .  A
O1232      H1248   0.992       .  S
O1234      H1245   0.992       .  S
C1236      C1237   1.396       .  A
C1236      O1241   1.372       .  S
C1237      C1238   1.408       .  A
C1237      H1242   1.084       .  S
C1238      C1239   1.411       .  A
C1239      C1240   1.406       .  A
C1239      O1243   1.371       .  S
C1240      H1244   1.083       .  S
O1241      H1246   0.992       .  S
O1243      H1247   0.992       .  S
C1249      C1250   1.407       .  A
C1249      C1254   1.408       .  A
C1249      H1259   1.083       .  S
C1250      C1255   1.481       .  S
C1250      C1251   1.404       .  A
C1251      C1252   1.394       .  A
C1251      O1256   1.372       .  S
C1252      C1253   1.405       .  A
C1252      H1257   1.084       .  S
C1253      C1254   1.409       .  A
C1254      O1258   1.371       .  S
C1255      C1260   1.404       .  A
C1255      C1264   1.401       .  A
O1256      H1272   0.992       .  S
O1258      H1269   0.992       .  S
C1260      C1261   1.404       .  A
C1260      O1265   1.371       .  S
C1261      C1262   1.411       .  A
C1261      H1266   1.083       .  S
C1262      C1263   1.417       .  A
C1263      C1264   1.399       .  A
C1263      O1267   1.372       .  S
C1264      H1268   1.084       .  S
O1265      H1270   0.991       .  S
O1267      H1271   0.992       .  S
C1273      C1274   1.406       .  A
C1273      C1278   1.404       .  A
C1273      H1283   1.083       .  S
C1274      C1279   1.493       .  S
C1274      C1275   1.411       .  A
C1275      C1276   1.401       .  A
C1275      O1280   1.372       .  S
C1276      C1277   1.406       .  A
C1276      H1281   1.084       .  S
C1277      C1278   1.410       .  A
C1278      O1282   1.371       .  S
C1279      C1284   1.411       .  A
C1279      C1288   1.400       .  A
O1280      H1296   0.992       .  S
O1282      H1293   0.992       .  S
C1284      C1285   1.410       .  A
C1284      O1289   1.372       .  S
C1285      C1286   1.408       .  A
C1285      H1290   1.083       .  S
C1286      C1287   1.420       .  A
C1287      C1288   1.398       .  A
C1287      O1291   1.372       .  S
C1288      H1292   1.084       .  S
O1289      H1294   0.992       .  S
O1291      H1295   0.992       .  S
C1297      C1298   1.406       .  A
C1297      C1302   1.400       .  A
C1297      H1307   1.083       .  S
C1298      C1303   1.488       .  S
C1298      C1299   1.411       .  A
C1299      C1300   1.401       .  A
C1299      O1304   1.372       .  S
C1300      C1301   1.404       .  A
C1300      H1305   1.084       .  S
C1301      C1302   1.409       .  A
C1302      O1306   1.372   1_455  S
C1303      C1308   1.406       .  A
C1303      C1312   1.409   1_556  A
O1304      H1320   0.992       .  S
O1306      H1317   0.992   1_655  S
C1308      C1309   1.392   1_556  A
C1308      O1313   1.373       .  S
C1309      C1310   1.409       .  A
C1309      H1314   1.084       .  S
C1310      C1311   1.410       .  A
C1311      C1312   1.406       .  A
C1311      O1315   1.371       .  S
C1312      H1316   1.083       .  S
O1313      H1318   0.992       .  S
O1315      H1319   0.992       .  S
C1321      C1322   1.406       .  A
C1321      C1326   1.401   1_455  A
C1321      H1331   1.082       .  S
C1322      C1327   1.502       .  S
C1322      C1323   1.416   1_455  A
C1323      C1324   1.407       .  A
C1323      O1328   1.371   1_655  S
C1324      C1325   1.405       .  A
C1324      H1329   1.083       .  S
C1325      C1326   1.414       .  A
C1326      O1330   1.372       .  S
C1327      C1332   1.415       .  A
C1327      C1336   1.409       .  A
O1328      H1344   0.991   1_455  S
O1330      H1341   0.992       .  S
C1332      C1333   1.406       .  A
C1332      O1337   1.373       .  S
C1333      C1334   1.405       .  A
C1333      H1338   1.084       .  S
C1334      C1335   1.407       .  A
C1335      C1336   1.404       .  A
C1335      O1339   1.372       .  S
C1336      H1340   1.083       .  S
O1337      H1342   0.992       .  S
O1339      H1343   0.992       .  S
C1345      C1346   1.406       .  A
C1345      C1350   1.409       .  A
C1345      H1355   1.083       .  S
C1346      C1351   1.484       .  S
C1346      C1347   1.405       .  A
C1347      C1348   1.395       .  A
C1347      O1352   1.373       .  S
C1348      C1349   1.407       .  A
C1348      H1353   1.084       .  S
C1349      C1350   1.414       .  A
C1350      O1354   1.371       .  S
C1351      C1356   1.408       .  A
C1351      C1360   1.404       .  A
O1352      H1368   0.992       .  S
O1354      H1365   0.992       .  S
C1356      C1357   1.399       .  A
C1356      O1361   1.374       .  S
C1357      C1358   1.404       .  A
C1357      H1362   1.084       .  S
C1358      C1359   1.413       .  A
C1359      C1360   1.406       .  A
C1359      O1363   1.371       .  S
C1360      H1364   1.083       .  S
O1361      H1366   0.992       .  S
O1363      H1367   0.992       .  S
C1369      C1370   1.402       .  A
C1369      C1374   1.397       .  A
C1369      H1379   1.084   1_554  S
C1370      C1375   1.479   1_554  S
C1370      C1371   1.408       .  A
C1371      C1372   1.405       .  A
C1371      O1376   1.371       .  S
C1372      C1373   1.404       .  A
C1372      H1377   1.084       .  S
C1373      C1374   1.408       .  A
C1374      O1378   1.372       .  S
C1375      C1380   1.403   1_556  A
C1375      C1384   1.403       .  A
O1376      H1392   0.992       .  S
O1378      H1389   0.992   1_554  S
C1380      C1381   1.393       .  A
C1380      O1385   1.372       .  S
C1381      C1382   1.409   1_554  A
C1381      H1386   1.083       .  S
C1382      C1383   1.417       .  A
C1383      C1384   1.409       .  A
C1383      O1387   1.371       .  S
C1384      H1388   1.083       .  S
O1385      H1390   0.992       .  S
O1387      H1391   0.992       .  S
C1393      C1394   1.402       .  A
C1393      C1398   1.404       .  A
C1393      H1403   1.083       .  S
C1394      C1399   1.474       .  S
C1394      C1395   1.405       .  A
C1395      C1396   1.396       .  A
C1395      O1400   1.373       .  S
C1396      C1397   1.404       .  A
C1396      H1401   1.084       .  S
C1397      C1398   1.411       .  A
C1398      O1402   1.371       .  S
C1399      C1404   1.405       .  A
C1399      C1408   1.402       .  A
O1400      H1416   0.992       .  S
O1402      H1413   0.992       .  S
C1404      C1405   1.396       .  A
C1404      O1409   1.373       .  S
C1405      C1406   1.403       .  A
C1405      H1410   1.084       .  S
C1406      C1407   1.411       .  A
C1407      C1408   1.404       .  A
C1407      O1411   1.371       .  S
C1408      H1412   1.083       .  S
O1409      H1414   0.992       .  S
O1411      H1415   0.992       .  S
C1417      C1418   1.400       .  A
C1417      C1422   1.397       .  A
C1417      H1427   1.084       .  S
C1418      C1423   1.477       .  S
C1418      C1419   1.407       .  A
C1419      C1420   1.404       .  A
C1419      O1424   1.372       .  S
C1420      C1421   1.405       .  A
C1420      H1425   1.084       .  S
C1421      C1422   1.410       .  A
C1422      O1426   1.372       .  S
C1423      C1428   1.404       .  A
C1423      C1432   1.403   1_455  A
O1424      H1440   0.992       .  S
O1426      H1437   0.992       .  S
C1428      C1429   1.397       .  A
C1428      O1433   1.372       .  S
C1429      C1430   1.406   1_455  A
C1429      H1434   1.084       .  S
C1430      C1431   1.410       .  A
C1431      C1432   1.404       .  A
C1431      O1435   1.371       .  S
C1432      H1436   1.084       .  S
O1433      H1438   0.991       .  S
O1435      H1439   0.992       .  S
C1441      C1442   1.407   1_455  A
C1441      C1446   1.405       .  A
C1441      H1451   1.083       .  S
C1442      C1447   1.486       .  S
C1442      C1443   1.406       .  A
C1443      C1444   1.394   1_655  A
C1443      O1448   1.372       .  S
C1444      C1445   1.409       .  A
C1444      H1449   1.083       .  S
C1445      C1446   1.411       .  A
C1446      O1450   1.371       .  S
C1447      C1452   1.410       .  A
C1447      C1456   1.404       .  A
O1448      H1464   0.992       .  S
O1450      H1461   0.992       .  S
C1452      C1453   1.403       .  A
C1452      O1457   1.372       .  S
C1453      C1454   1.404       .  A
C1453      H1458   1.084       .  S
C1454      C1455   1.410       .  A
C1455      C1456   1.399       .  A
C1455      O1459   1.371       .  S
C1456      H1460   1.084       .  S
O1457      H1462   0.992       .  S
O1459      H1463   0.992   1_545  S
C1465      C1466   1.406       .  A
C1465      C1470   1.405       .  A
C1465      H1475   1.083       .  S
C1466      C1471   1.490       .  S
C1466      C1467   1.411       .  A
C1467      C1468   1.399       .  A
C1467      O1472   1.372       .  S
C1468      C1469   1.404       .  A
C1468      H1473   1.084       .  S
C1469      C1470   1.410       .  A
C1470      O1474   1.372       .  S
C1471      C1476   1.411       .  A
C1471      C1480   1.399       .  A
O1472      H1488   0.992       .  S
O1474      H1485   0.992       .  S
C1476      C1477   1.408       .  A
C1476      O1481   1.372       .  S
C1477      C1478   1.408       .  A
C1477      H1482   1.083       .  S
C1478      C1479   1.418       .  A
C1479      C1480   1.396       .  A
C1479      O1483   1.373       .  S
C1480      H1484   1.084       .  S
O1481      H1486   0.992       .  S
O1483      H1487   0.992       .  S
C1489      C1490   1.407       .  A
C1489      C1494   1.402       .  A
C1489      H1499   1.083       .  S
C1490      C1495   1.498       .  S
C1490      C1491   1.413       .  A
C1491      C1492   1.405       .  A
C1491      O1496   1.371       .  S
C1492      C1493   1.406       .  A
C1492      H1497   1.084       .  S
C1493      C1494   1.411       .  A
C1494      O1498   1.371       .  S
C1495      C1500   1.409       .  A
C1495      C1504   1.410   1_545  A
O1496      H1512   0.992       .  S
O1498      H1509   0.992       .  S
C1500      C1501   1.398   1_545  A
C1500      O1505   1.372       .  S
C1501      C1502   1.410       .  A
C1501      H1506   1.083       .  S
C1502      C1503   1.413       .  A
C1503      C1504   1.412       .  A
C1503      O1507   1.371       .  S
C1504      H1508   1.083       .  S
O1505      H1510   0.992       .  S
O1507      H1511   0.992       .  S
C1513      C1514   1.409   1_545  A
C1513      C1518   1.409       .  A
C1513      H1523   1.083       .  S
C1514      C1519   1.490       .  S
C1514      C1515   1.407       .  A
C1515      C1516   1.394   1_565  A
C1515      O1520   1.372       .  S
C1516      C1517   1.406       .  A
C1516      H1521   1.082   1_545  S
C1517      C1518   1.410       .  A
C1518      O1522   1.371       .  S
C1519      C1524   1.407       .  A
C1519      C1528   1.403       .  A
O1520      H1536   0.992       .  S
O1522      H1533   0.992       .  S
C1524      C1525   1.407       .  A
C1524      O1529   1.372       .  S
C1525      C1526   1.413       .  A
C1525      H1530   1.083       .  S
C1526      C1527   1.414       .  A
C1527      C1528   1.399       .  A
C1527      O1531   1.371       .  S
C1528      H1532   1.084       .  S
O1529      H1534   0.992       .  S
O1531      H1535   0.992       .  S
C1537      C1538   1.408       .  A
C1537      C1542   1.405       .  A
C1537      H1547   1.083       .  S
C1538      C1543   1.492       .  S
C1538      C1539   1.410       .  A
C1539      C1540   1.394       .  A
C1539      O1544   1.372       .  S
C1540      C1541   1.407       .  A
C1540      H1545   1.084       .  S
C1541      C1542   1.411       .  A
C1542      O1546   1.371       .  S
C1543      C1548   1.413       .  A
C1543      C1552   1.405       .  A
O1544      H1560   0.992       .  S
O1546      H1557   0.992       .  S
C1548      C1549   1.404       .  A
C1548      O1553   1.372       .  S
C1549      C1550   1.404       .  A
C1549      H1554   1.084       .  S
C1550      C1551   1.411       .  A
C1551      C1552   1.398       .  A
C1551      O1555   1.371       .  S
C1552      H1556   1.083       .  S
O1553      H1558   0.992       .  S
O1555      H1559   0.992       .  S
C1561      C1562   1.404       .  A
C1561      C1566   1.397       .  A
C1561      H1571   1.084       .  S
C1562      C1567   1.487       .  S
C1562      C1563   1.411       .  A
C1563      C1564   1.404       .  A
C1563      O1568   1.372       .  S
C1564      C1565   1.404       .  A
C1564      H1569   1.084       .  S
C1565      C1566   1.407       .  A
C1566      O1570   1.372       .  S
C1567      C1572   1.407       .  A
C1567      C1576   1.406       .  A
O1568      H1584   0.992       .  S
O1570      H1581   0.992       .  S
C1572      C1573   1.394       .  A
C1572      O1577   1.372       .  S
C1573      C1574   1.408       .  A
C1573      H1578   1.083       .  S
C1574      C1575   1.413       .  A
C1575      C1576   1.407       .  A
C1575      O1579   1.371       .  S
C1576      H1580   1.083       .  S
O1577      H1582   0.992       .  S
O1579      H1583   0.992       .  S
C1585      C1586   1.401       .  A
C1585      C1590   1.396   1_554  A
C1585      H1595   1.083       .  S
C1586      C1591   1.489       .  S
C1586      C1587   1.412   1_554  A
C1587      C1588   1.405       .  A
C1587      O1592   1.371       .  S
C1588      C1589   1.405       .  A
C1588      H1593   1.084       .  S
C1589      C1590   1.414       .  A
C1590      O1594   1.373       .  S
C1591      C1596   1.412       .  A
C1591      C1600   1.405       .  A
O1592      H1608   0.991       .  S
O1594      H1605   0.992       .  S
C1596      C1597   1.403       .  A
C1596      O1601   1.373       .  S
C1597      C1598   1.404       .  A
C1597      H1602   1.084       .  S
C1598      C1599   1.408       .  A
C1599      C1600   1.401       .  A
C1599      O1603   1.372       .  S
C1600      H1604   1.083       .  S
O1601      H1606   0.992       .  S
O1603      H1607   0.992       .  S
C1609      C1610   1.405       .  A
C1609      C1614   1.403       .  A
C1609      H1619   1.084       .  S
C1610      C1615   1.485       .  S
C1610      C1611   1.409       .  A
C1611      C1612   1.402       .  A
C1611      O1616   1.372       .  S
C1612      C1613   1.403       .  A
C1612      H1617   1.084       .  S
C1613      C1614   1.409       .  A
C1614      O1618   1.372       .  S
C1615      C1620   1.410       .  A
C1615      C1624   1.402       .  A
O1616      H1632   0.992       .  S
O1618      H1629   0.992       .  S
C1620      C1621   1.407       .  A
C1620      O1625   1.372       .  S
C1621      C1622   1.403       .  A
C1621      H1626   1.084       .  S
C1622      C1623   1.411       .  A
C1623      C1624   1.398       .  A
C1623      O1627   1.372       .  S
C1624      H1628   1.084       .  S
O1625      H1630   0.992       .  S
O1627      H1631   0.992       .  S
C1633      C1634   1.404       .  A
C1633      C1638   1.404       .  A
C1633      H1643   1.083       .  S
C1634      C1639   1.478       .  S
C1634      C1635   1.406       .  A
C1635      C1636   1.397       .  A
C1635      O1640   1.372       .  S
C1636      C1637   1.403       .  A
C1636      H1641   1.084       .  S
C1637      C1638   1.410       .  A
C1638      O1642   1.371       .  S
C1639      C1644   1.408   1_545  A
C1639      C1648   1.401       .  A
O1640      H1656   0.991       .  S
O1642      H1653   0.991       .  S
C1644      C1645   1.404       .  A
C1644      O1649   1.372       .  S
C1645      C1646   1.404       .  A
C1645      H1650   1.084       .  S
C1646      C1647   1.409   1_565  A
C1647      C1648   1.398       .  A
C1647      O1651   1.372       .  S
C1648      H1652   1.084       .  S
O1649      H1654   0.992       .  S
O1651      H1655   0.992       .  S
