geometry optimzed in LAMMPS
_audit_creation_date              2020-11-30 
_audit_creation_method            'lammps2cif' 
_symmetry_space_group_name_H-M    'P1' 
_symmetry_Int_Tables_number       1 
_symmetry_cell_setting            triclinic 
loop_ 
_symmetry_equiv_pos_as_xyz 
  x,y,z 
_cell_length_a                    52.6207455 
_cell_length_b                    52.56531323982429 
_cell_length_c                    52.600285507307966 
_cell_angle_alpha                 89.96956210132542 
_cell_angle_beta                  90.01754821891213 
_cell_angle_gamma                 90.0812090213521 
loop_ 
_atom_site_label 
_atom_site_type_symbol 
_atom_site_fract_x 
_atom_site_fract_y 
_atom_site_fract_z 
_atom_site_charge 
C1          C  0.98279664  0.26436372  0.22627294     0.02900
C2          C  0.98240156  0.23837639  0.23337798    -0.13300
C3          C  0.98831006  0.23128429  0.25867146     0.00400
C4          C  0.99438264  0.25028164  0.27637945    -0.11800
C5          C  0.99457290  0.27603685  0.26957890     0.02900
C6          C  0.98879891  0.28285559  0.24451807    -0.11200
H7          H  0.97782781  0.22393702  0.21942724     0.08500
H8          H  0.99817186  0.24490621  0.29591258     0.06000
H9          H  0.98948528  0.30270639  0.23893591     0.05800
O10         O  0.00394734  0.43224937  0.46799038    -0.80400
O11         O  0.01754491  0.57626814  0.46074205    -0.81900
O12         O  0.96439773  0.50635129  0.43564014    -0.78900
O13         O  0.04809577  0.50169743  0.43150306    -0.77300
O14         O  0.07969522  0.50183841  0.46125732    -0.79100
O15         O  0.93543540  0.50888046  0.46790593    -0.80100
O16         O  0.01224243  0.54416576  0.43187214    -0.81400
O17         O  0.00384574  0.46214694  0.43639842    -0.81700
Eu18       Eu  0.00739107  0.50446101  0.45496216     2.39200
O19         O  0.03584614  0.53022015  0.47814326    -0.89200
O20         O  0.98137386  0.48141008  0.48297826    -0.92800
C21         C  0.00328380  0.43897022  0.44437446     1.01900
C22         C  0.01673274  0.56750129  0.43779809     1.01700
C23         C  0.94132211  0.50764887  0.44409944     1.01700
C24         C  0.07181328  0.50142553  0.43799685     0.99500
H25         H  0.97446742  0.54420237  0.46953386     0.29300
O26         O  0.98470764  0.53344329  0.48041657    -1.01600
H27         H  0.04251448  0.46605032  0.47000072     0.29300
O28         O  0.03280939  0.47764318  0.48038224    -1.04100
O29         O  0.02170575  0.58080175  0.54457303    -0.81300
O30         O  0.00815945  0.43593048  0.55107511    -0.80900
O31         O  0.94110034  0.55304671  0.50617610    -0.79300
O32         O  0.08518743  0.54324257  0.50504986    -0.82700
O33         O  0.07948777  0.46151475  0.50820090    -0.80500
O34         O  0.93463013  0.46967607  0.51094039    -0.79200
O35         O  0.96975855  0.51544545  0.58054428    -0.80700
O36         O  0.05519207  0.50694868  0.57727391    -0.82600
O37         O  0.93868907  0.51612224  0.55016902    -0.79300
O38         O  0.08344391  0.50432749  0.54433993    -0.82000
O39         O  0.97252619  0.58305579  0.50423815    -0.77800
O40         O  0.96304772  0.43680494  0.51085433    -0.77800
O41         O  0.04788012  0.43185811  0.51133932    -0.77400
O42         O  0.05730378  0.57653901  0.50554744    -0.80900
O43         O  0.02098100  0.55076210  0.57614812    -0.80300
O44         O  0.01274543  0.46771329  0.58051487    -0.78700
Eu45       Eu  0.01324859  0.55893999  0.50407651     2.39800
Eu46       Eu  0.00647098  0.45488633  0.50878053     2.39600
Eu47       Eu  0.95865169  0.51004630  0.50848570     2.38400
Eu48       Eu  0.06056473  0.50355986  0.50391473     2.39900
Eu49       Eu  0.01146705  0.50887040  0.55843157     2.39800
O50         O  0.03428217  0.48087352  0.53203911    -0.93100
O51         O  0.98678402  0.53574115  0.53224972    -0.92000
C52         C  0.02521862  0.57344092  0.56776040     1.02100
C53         C  0.01155422  0.44408017  0.57393673     1.00800
C54         C  0.94881211  0.57631142  0.50481285     1.00200
C55         C  0.08011266  0.56722262  0.50632238     1.02200
C56         C  0.07164666  0.43847721  0.51108827     1.01100
C57         C  0.94011694  0.44568905  0.51131514     1.00000
C58         C  0.94618832  0.51764269  0.57348565     1.00000
C59         C  0.07813347  0.50576935  0.56822153     1.02600
H60         H  0.97224497  0.47397802  0.54630360     0.30000
O61         O  0.98317387  0.48329515  0.53480848    -1.05300
H62         H  0.04948589  0.54074766  0.53901192     0.32100
O63         O  0.03716586  0.53114732  0.52945979    -1.07800
C64         C  0.00590033  0.71862455  0.74564181     0.02900
C65         C  0.02888209  0.70992561  0.73537536    -0.13300
C66         C  0.04103059  0.72294304  0.71543010     0.00400
C67         C  0.03075029  0.74627530  0.70756778    -0.11800
C68         C  0.00683662  0.75438772  0.71603940     0.02900
C69         C  0.99415341  0.74032845  0.73509144    -0.11200
H70         H  0.03609815  0.69186673  0.74205315     0.08500
H71         H  0.04028178  0.75738531  0.69310449     0.06000
H72         H  0.97555865  0.74621824  0.74163313     0.05800
C73         C  0.00623381  0.24573679  0.74301041     0.02900
C74         C  0.00128660  0.22108917  0.73348830    -0.13300
C75         C  0.01138042  0.21377336  0.70962331     0.00400
C76         C  0.02593964  0.23134357  0.69562449    -0.11800
C77         C  0.03040173  0.25595992  0.70479062     0.02900
C78         C  0.02074299  0.26270717  0.72858165    -0.11200
H79         H  0.98970930  0.20793576  0.74432545     0.08500
H80         H  0.03317027  0.22600555  0.67709195     0.06000
H81         H  0.02343691  0.28189777  0.73563598     0.05800
C82         C  0.99688329  0.71383048  0.21043175     0.02900
C83         C  0.00805978  0.69922378  0.22982826    -0.13300
C84         C  0.01043168  0.70888493  0.25447257     0.00400
C85         C  0.00265302  0.73370229  0.25950174    -0.11800
C86         C  0.99124246  0.74866412  0.24082778     0.02900
C87         C  0.98806138  0.73871138  0.21603867    -0.11200
H88         H  0.01382120  0.67981484  0.22595190     0.08500
H89         H  0.00510028  0.74146142  0.27846278     0.06000
H90         H  0.97895921  0.75003200  0.20145196     0.05800
O91         O  0.98608838  0.02199480  0.40435534    -0.80400
O92         O  0.99005490  0.01878664  0.54940768    -0.81900
O93         O  0.94491800  0.04895188  0.47945575    -0.78900
O94         O  0.02782857  0.05312337  0.47557887    -0.77300
O95         O  0.05960417  0.02347698  0.47478392    -0.79100
O96         O  0.91458578  0.01776135  0.47985320    -0.80100
O97         O  0.98894051  0.05074418  0.51996118    -0.81400
O98         O  0.98452570  0.05260586  0.43516256    -0.81700
Eu99       Eu  0.98725193  0.03063538  0.47720881     2.39200
O100        O  0.01461674  0.00529399  0.50206170    -0.89200
O101        O  0.96134113  0.00458912  0.45164643    -0.92800
C102        C  0.98482583  0.04546577  0.41155005     1.01900
C103        C  0.98978118  0.04252392  0.54318269     1.01700
C104        C  0.92169875  0.04123404  0.48051007     1.01700
C105        C  0.05142568  0.04662287  0.47461075     0.99500
H106        H  0.95214171  0.01319740  0.51420324     0.29300
O107        O  0.96262788  0.00329625  0.50287366    -1.01600
H108        H  0.02329971  0.01715473  0.43990134     0.29300
O109        O  0.01348322  0.00607373  0.45077512    -1.04100
O110        O  0.98916390  0.93579679  0.54720009    -0.81300
O111        O  0.98714422  0.93928983  0.40310393    -0.80900
O112        O  0.91648569  0.97480998  0.51967735    -0.79300
O113        O  0.06281777  0.98005215  0.51776380    -0.82700
O114        O  0.06082811  0.98246376  0.43277381    -0.80500
O115        O  0.91482981  0.97658692  0.43503321    -0.79200
O116        O  0.95069634  0.90543706  0.48652179    -0.80700
O117        O  0.03314302  0.90837828  0.46910235    -0.82600
O118        O  0.91879504  0.93497539  0.48600109    -0.79300
O119        O  0.06284332  0.94023464  0.46934891    -0.82000
O120        O  0.94845645  0.97560224  0.54914622    -0.77800
O121        O  0.94600783  0.98016932  0.40503732    -0.77800
O122        O  0.02882526  0.98118551  0.40338655    -0.77400
O123        O  0.03184981  0.97846677  0.54817272    -0.80900
O124        O  0.99164382  0.90480933  0.51682186    -0.80300
O125        O  0.98636425  0.90672823  0.43191606    -0.78700
Eu126      Eu  0.99006944  0.97781188  0.52731721     2.39800
Eu127      Eu  0.98764883  0.98006137  0.42535531     2.39600
Eu128      Eu  0.93676612  0.97702667  0.47708211     2.38400
Eu129      Eu  0.04092481  0.98071213  0.47556806     2.39900
Eu130      Eu  0.99059165  0.92667902  0.47485664     2.39800
O131        O  0.01485868  0.95478770  0.44999760    -0.93100
O132        O  0.96536281  0.95256530  0.50063794    -0.92000
C133        C  0.98979215  0.91229036  0.54023484     1.02100
C134        C  0.98603280  0.91546039  0.40881548     1.00800
C135        C  0.92468635  0.97449529  0.54289974     1.00200
C136        C  0.05538710  0.97937957  0.54128799     1.02200
C137        C  0.05256414  0.98210178  0.40956458     1.01100
C138        C  0.92249663  0.97852840  0.41167301     1.00000
C139        C  0.92767769  0.91264649  0.49096870     1.00000
C140        C  0.05613170  0.91675152  0.46690518     1.02600
H141        H  0.95179970  0.94130156  0.43983159     0.30000
O142        O  0.96258501  0.95196971  0.45023224    -1.05300
H143        H  0.02763632  0.94220002  0.51113257     0.32100
O144        O  0.01654967  0.95273807  0.50098900    -1.07800
C145        C  0.22808005  0.25875967  0.50900960     0.02900
C146        C  0.20990769  0.24119817  0.50066682    -0.13300
C147        C  0.21637420  0.21582555  0.49622285     0.00400
C148        C  0.24146864  0.20791656  0.49988325    -0.11800
C149        C  0.26014718  0.22498633  0.50825235     0.02900
C150        C  0.25346558  0.25068385  0.51288575    -0.11200
H151        H  0.19046946  0.24738957  0.49772062     0.08500
H152        H  0.24643896  0.18813699  0.49682775     0.06000
H153        H  0.26764662  0.26403757  0.51958228     0.05800
C154        C  0.73570642  0.24396395  0.51265871     0.02900
C155        C  0.75231460  0.22339109  0.51461437    -0.13300
C156        C  0.77837705  0.22700094  0.51730506     0.00400
C157        C  0.78810494  0.25165163  0.51879351    -0.11800
C158        C  0.77207459  0.27292106  0.51718780     0.02900
C159        C  0.74554007  0.26909977  0.51366278    -0.11200
H160        H  0.74480756  0.20422201  0.51296484     0.08500
H161        H  0.80844305  0.25432758  0.52081610     0.06000
H162        H  0.73289043  0.28523514  0.51196360     0.05800
C163        C  0.73775914  0.76580089  0.53354531     0.02900
C164        C  0.75121873  0.77979615  0.55184363    -0.13300
C165        C  0.77666369  0.77432490  0.55742704     0.00400
C166        C  0.78766004  0.75257572  0.54665564    -0.11800
C167        C  0.77422799  0.73731951  0.52946566     0.02900
C168        C  0.74936500  0.74436869  0.52217760    -0.11200
H169        H  0.74239673  0.79646088  0.56011469     0.08500
H170        H  0.80744777  0.74817051  0.55022159     0.06000
H171        H  0.73944151  0.73370614  0.50761725     0.05800
C172        C  0.24330625  0.73567468  0.50348807     0.02900
C173        C  0.22594667  0.74718527  0.48707820    -0.13300
C174        C  0.23049740  0.77125606  0.47683492     0.00400
C175        C  0.25389833  0.78314352  0.48145623    -0.11800
C176        C  0.27213146  0.77174573  0.49739703     0.02900
C177        C  0.26651707  0.74803337  0.50895979    -0.11200
H178        H  0.20811910  0.73759606  0.48306212     0.08500
H179        H  0.25743732  0.80196769  0.47380536     0.06000
H180        H  0.28001479  0.73931255  0.52182091     0.05800
C181        C  0.72439497  0.97217992  0.20623911     0.02900
C182        C  0.74995942  0.97464359  0.21430355    -0.13300
C183        C  0.75596270  0.97155466  0.24033868     0.00400
C184        C  0.73652361  0.96636101  0.25770516    -0.11800
C185        C  0.71131329  0.96409171  0.24984587     0.02900
C186        C  0.70532696  0.96716255  0.22418569    -0.11200
H187        H  0.76484111  0.97849197  0.20061343     0.08500
H188        H  0.74109681  0.96455861  0.27774117     0.06000
H189        H  0.68572273  0.96537418  0.21805098     0.05800
O190        O  0.46619909  0.07617649  0.50509891    -0.80400
O191        O  0.46988298  0.93126021  0.51071513    -0.81900
O192        O  0.43485080  0.00041699  0.46726130    -0.78900
O193        O  0.44120305  0.99897634  0.55026368    -0.77300
O194        O  0.47331412  0.00018939  0.57956989    -0.79100
O195        O  0.46399915  0.99860045  0.43512198    -0.80100
O196        O  0.43801451  0.96081742  0.51010956    -0.81400
O197        O  0.43594596  0.04520070  0.50880979    -0.81700
Eu198      Eu  0.45811525  0.00327885  0.50752539     2.39200
O199        O  0.48668835  0.97968685  0.53262638    -0.89200
O200        O  0.48123074  0.02843814  0.47879222    -0.92800
C201        C  0.44289314  0.06886489  0.50760554     1.01900
C202        C  0.44612320  0.93760686  0.51119983     1.01700
C203        C  0.44102206  0.99858076  0.44359385     1.01700
C204        C  0.44987526  0.99714451  0.57308912     0.99500
H205        H  0.47242469  0.96491012  0.47232788     0.29300
O206        O  0.48313455  0.97647072  0.48177611    -1.01600
H207        H  0.47409763  0.04103801  0.54249468     0.29300
O208        O  0.48439264  0.03044652  0.53160495    -1.04100
O209        O  0.55372408  0.93344828  0.50497749    -0.81300
O210        O  0.54850324  0.07775655  0.50049024    -0.80900
O211        O  0.50826408  0.95805034  0.43439529    -0.79300
O212        O  0.51816562  0.96510858  0.57922931    -0.82700
O213        O  0.51154988  0.04972566  0.57608803    -0.80500
O214        O  0.50457161  0.04291275  0.43041120    -0.79200
O215        O  0.57945433  0.00137931  0.45769550    -0.80700
O216        O  0.58375578  0.01734897  0.54114672    -0.82600
O217        O  0.54597325  0.99944880  0.43002942    -0.79300
O218        O  0.55483180  0.01779724  0.57362106    -0.82000
O219        O  0.51084576  0.92916946  0.46678858    -0.77800
O220        O  0.50589662  0.07444439  0.46032665    -0.77800
O221        O  0.51068050  0.07807566  0.54315930    -0.77400
O222        O  0.51469406  0.93358304  0.54951781    -0.80900
O223        O  0.58476514  0.96391883  0.50366951    -0.80300
O224        O  0.58131901  0.04938442  0.49806167    -0.78700
Eu225      Eu  0.51151409  0.95298463  0.50719630     2.39800
Eu226      Eu  0.50789106  0.05522649  0.50259154     2.39600
Eu227      Eu  0.50649550  0.00163769  0.45332620     2.38400
Eu228      Eu  0.51315373  0.00651098  0.55656515     2.39900
Eu229      Eu  0.56224127  0.00581318  0.50127367     2.39800
O230        O  0.53578864  0.03085123  0.52696238    -0.93100
O231        O  0.53477222  0.97841393  0.47888240    -0.92000
C232        C  0.57725358  0.94036443  0.50410966     1.02100
C233        C  0.57234887  0.07238852  0.49882990     1.00800
C234        C  0.50990876  0.93492683  0.44290720     1.00200
C235        C  0.51738488  0.94133426  0.57265104     1.02200
C236        C  0.51154384  0.07270775  0.56709205     1.01100
C237        C  0.50497888  0.06662073  0.43711448     1.00000
C238        C  0.56984817  0.99887052  0.43517332     1.00000
C239        C  0.57715232  0.02189251  0.56436378     1.02600
H240        H  0.54295894  0.03981772  0.46439837     0.30000
O241        O  0.53343191  0.02938836  0.47613928    -1.05300
H242        H  0.55061633  0.97080003  0.54097116     0.32100
O243        O  0.53893924  0.98037405  0.53048516    -1.07800
C244        C  0.25256164  0.97735200  0.75009617     0.02900
C245        C  0.22877209  0.98325552  0.73899825    -0.13300
C246        C  0.22488522  0.97876547  0.71271306     0.00400
C247        C  0.24482553  0.96891349  0.69806123    -0.11800
C248        C  0.26834126  0.96325359  0.70903408     0.02900
C249        C  0.27181369  0.96702258  0.73503043    -0.11200
H250        H  0.21383146  0.99159255  0.75041398     0.08500
H251        H  0.24206837  0.96592540  0.67784886     0.06000
H252        H  0.29033298  0.96357399  0.74342313     0.05800
C253        C  0.72509801  0.99163728  0.74371258     0.02900
C254        C  0.74856620  0.98044245  0.73665733    -0.13300
C255        C  0.76342158  0.99177877  0.71720492     0.00400
C256        C  0.75460861  0.01388061  0.70526411    -0.11800
C257        C  0.73079535  0.02402168  0.71097357     0.02900
C258        C  0.71656947  0.01328233  0.73070005    -0.11200
H259        H  0.75475538  0.96293954  0.74556634     0.08500
H260        H  0.76557113  0.02208344  0.68983640     0.06000
H261        H  0.69785507  0.02075076  0.73495698     0.05800
C262        C  0.26822011  0.96958440  0.22609981     0.02900
C263        C  0.24178691  0.97065555  0.23078687    -0.13300
C264        C  0.23287173  0.97343087  0.25597104     0.00400
C265        C  0.25034991  0.97526170  0.27598834    -0.11800
C266        C  0.27648034  0.97455530  0.27136012     0.02900
C267        C  0.28524118  0.97160180  0.24648559    -0.11200
H268        H  0.22844243  0.96945626  0.21515521     0.08500
H269        H  0.24350466  0.97777835  0.29527290     0.06000
H270        H  0.30552936  0.97103749  0.24289278     0.05800
O271        O  0.56340317  0.97434316  0.01247366    -0.80400
O272        O  0.41940718  0.98339617  0.02370941    -0.81900
O273        O  0.49938895  0.01858842  0.05082313    -0.78900
O274        O  0.48888777  0.93571941  0.04693892    -0.77300
O275        O  0.48496908  0.90585968  0.01545375    -0.79100
O276        O  0.49953346  0.05073252  0.02145561    -0.80100
O277        O  0.45131462  0.97957647  0.05287466    -0.81400
O278        O  0.53577592  0.97568716  0.04599201    -0.81700
Eu279      Eu  0.49202730  0.97834937  0.02859343     2.39200
O280        O  0.46298233  0.95551112  0.00353803    -0.89200
O281        O  0.51734550  0.00290397  0.00121501    -0.92800
C282        C  0.55846996  0.97466363  0.03651469     1.01900
C283        C  0.42749238  0.98109617  0.04672899     1.01700
C284        C  0.50166997  0.04217419  0.04439226     1.01700
C285        C  0.48639186  0.91263837  0.03898167     0.99500
H286        H  0.45771911  0.01894156  0.01808255     0.29300
O287        O  0.46673622  0.00807209  0.00636102    -1.01600
H288        H  0.52440270  0.93962792  0.00911159     0.29300
O289        O  0.51371785  0.95140121  0.99984239    -1.04100
O290        O  0.41370358  0.98695000  0.94149857    -0.81300
O291        O  0.55754152  0.97669971  0.93007685    -0.80900
O292        O  0.45220192  0.05723435  0.98134663    -0.79300
O293        O  0.43992829  0.91156188  0.97807762    -0.82700
O294        O  0.52468288  0.90451717  0.96835671    -0.80500
O295        O  0.53656554  0.04993183  0.97638282    -0.79200
O296        O  0.48336460  0.02514823  0.90620619    -0.80700
O297        O  0.47376121  0.94282884  0.90351544    -0.82600
O298        O  0.48802723  0.05438556  0.93808094    -0.79300
O299        O  0.47333968  0.91076454  0.93299817    -0.82000
O300        O  0.42032880  0.02773146  0.98176486    -0.77800
O301        O  0.56375189  0.01618905  0.97323037    -0.77800
O302        O  0.55688548  0.93373240  0.96810253    -0.77400
O303        O  0.41307324  0.94552980  0.98143871    -0.80900
O304        O  0.44135638  0.98669913  0.90796849    -0.80300
O305        O  0.52569831  0.97931593  0.90069826    -0.78700
Eu306      Eu  0.43801501  0.98483228  0.98115821     2.39800
Eu307      Eu  0.53906531  0.97652169  0.97271936     2.39600
Eu308      Eu  0.49264210  0.03260053  0.97892955     2.38400
Eu309      Eu  0.48424209  0.92849489  0.97475828     2.39900
Eu310      Eu  0.48504961  0.98263765  0.92504142     2.39800
O311        O  0.51023546  0.95316431  0.94755505    -0.93100
O312        O  0.46378762  0.00917761  0.95418205    -0.92000
C313        C  0.41868082  0.98740752  0.91748590     1.02100
C314        C  0.54949459  0.97753978  0.90693853     1.00800
C315        C  0.42837294  0.05089571  0.98154758     1.00200
C316        C  0.41740940  0.92143003  0.98005167     1.02200
C317        C  0.54851770  0.91068364  0.96673403     1.01100
C318        C  0.55915261  0.04026600  0.97465430     1.00000
C319        C  0.48421571  0.04816539  0.91465714     1.00000
C320        C  0.46943603  0.91965793  0.91043894     1.02600
H321        H  0.52493912  0.01613765  0.93880099     0.30000
O322        O  0.51429839  0.00597328  0.94981496    -1.05300
H323        H  0.44657850  0.94967659  0.94323295     0.32100
O324        O  0.45955152  0.95844030  0.95274465    -1.07800
C325        C  0.51877809  0.22210134  0.25638460     0.02900
C326        C  0.52445443  0.20394221  0.23771675    -0.13300
C327        C  0.52464152  0.21047682  0.21192954     0.00400
C328        C  0.52015865  0.23576257  0.20495343    -0.11800
C329        C  0.51467629  0.25429502  0.22324988     0.02900
C330        C  0.51371975  0.24745717  0.24916155    -0.11200
H331        H  0.52726401  0.18428673  0.24330031     0.08500
H332        H  0.52063661  0.24110819  0.18504348     0.06000
H333        H  0.50888283  0.26151914  0.26339774     0.05800
C334        C  0.51932721  0.72766663  0.24392864     0.02900
C335        C  0.51762953  0.74397709  0.22307511    -0.13300
C336        C  0.51766685  0.77026407  0.22607609     0.00400
C337        C  0.52029697  0.78064141  0.25041391    -0.11800
C338        C  0.52255869  0.76487657  0.27191393     0.02900
C339        C  0.52166150  0.73803359  0.26870434    -0.11200
H340        H  0.51514726  0.73594643  0.20422633     0.08500
H341        H  0.52025373  0.80114000  0.25269422     0.06000
H342        H  0.52280024  0.72556327  0.28505198     0.05800
C343        C  0.50310076  0.73977449  0.77230551     0.02900
C344        C  0.48019572  0.75116341  0.77997474    -0.13300
C345        C  0.46873957  0.77048791  0.76553630     0.00400
C346        C  0.47973994  0.77704885  0.74219640    -0.11800
C347        C  0.50353044  0.76764430  0.73497205     0.02900
C348        C  0.51528208  0.74863834  0.74997248    -0.11200
H349        H  0.47217519  0.74571025  0.79811673     0.08500
H350        H  0.47083327  0.79130377  0.73030975     0.06000
H351        H  0.53382021  0.74140608  0.74476392     0.05800
C352        C  0.49970659  0.24536754  0.72808689     0.02900
C353        C  0.48831863  0.22643815  0.74283810    -0.13300
C354        C  0.48201065  0.23071840  0.76819936     0.00400
C355        C  0.48552924  0.25492342  0.77858488    -0.11800
C356        C  0.49666311  0.27456916  0.76421883     0.02900
C357        C  0.50433987  0.26958964  0.73885223    -0.11200
H358        H  0.48533926  0.20769634  0.73470500     0.08500
H359        H  0.48096607  0.25811298  0.79842776     0.06000
H360        H  0.51365462  0.28423606  0.72775413     0.05800
O361        O  0.99229306  0.40954219  0.01979407    -0.80400
O362        O  0.98072050  0.55446325  0.01223227    -0.81900
O363        O  0.02817724  0.48595224  0.04678532    -0.78900
O364        O  0.94489087  0.48278295  0.04620685    -0.77300
O365        O  0.91363902  0.47796615  0.01633603    -0.79100
O366        O  0.05924620  0.48706907  0.01639624    -0.80100
O367        O  0.98351999  0.52561835  0.04465227    -0.81400
O368        O  0.98801333  0.44113267  0.04932933    -0.81700
Eu369      Eu  0.98657094  0.48238528  0.02612952     2.39200
O370        O  0.95888972  0.50426419  0.99867771    -0.89200
O371        O  0.01494178  0.45777067  0.00201375    -0.92800
C372        C  0.99028314  0.41743472  0.04293057     1.01900
C373        C  0.98161798  0.54864671  0.03610195     1.01700
C374        C  0.05164088  0.48723706  0.03972822     1.01700
C375        C  0.92141176  0.48111334  0.03943255     0.99500
H376        H  0.01997025  0.52093902  0.00911378     0.29300
O377        O  0.01037267  0.50891971  0.99906538    -1.01600
H378        H  0.95279974  0.44241222  0.01304515     0.29300
O379        O  0.96251933  0.45335102  0.00190591    -1.04100
O380        O  0.98077891  0.54987420  0.92928021    -0.81300
O381        O  0.99195576  0.40566401  0.93718110    -0.80900
O382        O  0.05607899  0.52827067  0.97259940    -0.79300
O383        O  0.91037823  0.51616220  0.97155587    -0.82700
O384        O  0.91781201  0.43075177  0.97717136    -0.80500
O385        O  0.06285238  0.44372528  0.97639631    -0.79200
O386        O  0.02917618  0.47852295  0.90168884    -0.80700
O387        O  0.94649784  0.46710844  0.90281839    -0.82600
O388        O  0.05887131  0.48326755  0.93311500    -0.79300
O389        O  0.91529484  0.46572152  0.93309593    -0.82000
O390        O  0.02243855  0.55569526  0.97092162    -0.77800
O391        O  0.03391330  0.41133622  0.97892792    -0.77800
O392        O  0.95213753  0.40418025  0.97763204    -0.77400
O393        O  0.93958487  0.54841661  0.97087886    -0.80900
O394        O  0.98270081  0.51874280  0.89906329    -0.80300
O395        O  0.99026822  0.43404819  0.90428795    -0.78700
Eu396      Eu  0.98263973  0.53086772  0.97176576     2.39800
Eu397      Eu  0.99112323  0.42918405  0.97744700     2.39600
Eu398      Eu  0.03857515  0.48431116  0.97469776     2.38400
Eu399      Eu  0.93456173  0.47537382  0.97452620     2.39900
Eu400      Eu  0.98727449  0.47759056  0.92251049     2.39800
O401        O  0.96378845  0.45168299  0.95046717    -0.93100
O402        O  0.01097325  0.50658166  0.94719876    -0.92000
C403        C  0.98088476  0.54239103  0.90592711     1.02100
C404        C  0.99142630  0.41110647  0.91325749     1.00800
C405        C  0.04653842  0.55097671  0.97153767     1.00200
C406        C  0.91651026  0.54008510  0.97077372     1.02200
C407        C  0.92801739  0.40825968  0.97752368     1.01100
C408        C  0.05687426  0.41985309  0.97803995     1.00000
C409        C  0.05231367  0.48062566  0.90965541     1.00000
C410        C  0.92351439  0.46272643  0.91015194     1.02600
H411        H  0.02621539  0.44485734  0.94015971     0.30000
O412        O  0.01488409  0.45535548  0.95003611    -1.05300
H413        H  0.94714382  0.51096687  0.93579377     0.32100
O414        O  0.95855793  0.50196664  0.94702533    -1.07800
C415        C  0.77150565  0.50928517  0.27427738     0.02900
C416        C  0.78780901  0.50977122  0.25320161    -0.13300
C417        C  0.77815735  0.50816808  0.22852851     0.00400
C418        C  0.75199178  0.50631502  0.22485651    -0.11800
C419        C  0.73520557  0.50572204  0.24542705     0.02900
C420        C  0.74491970  0.50706727  0.27048156    -0.11200
H421        H  0.80817463  0.51118718  0.25607365     0.08500
H422        H  0.74451779  0.50471742  0.20569191     0.06000
H423        H  0.73214037  0.50650935  0.28660283     0.05800
C424        C  0.26186627  0.49587159  0.22455425     0.02900
C425        C  0.24243209  0.49323084  0.20654847    -0.13300
C426        C  0.21697737  0.49156420  0.21387797     0.00400
C427        C  0.21089775  0.49240538  0.23971455    -0.11800
C428        C  0.22985841  0.49513406  0.25822482     0.02900
C429        C  0.25564035  0.49674291  0.25071017    -0.11200
H430        H  0.24725400  0.49311984  0.18650768     0.08500
H431        H  0.19119154  0.49104046  0.24558969     0.06000
H432        H  0.27043737  0.49911923  0.26482652     0.05800
C433        C  0.28479272  0.49922698  0.76371506     0.02900
C434        C  0.27756900  0.50403099  0.73822909    -0.13300
C435        C  0.25280201  0.49750769  0.73005044     0.00400
C436        C  0.23569948  0.48689402  0.74741383    -0.11800
C437        C  0.24258966  0.48224125  0.77264437     0.02900
C438        C  0.26716849  0.48845876  0.78064594    -0.11200
H439        H  0.29098951  0.51236660  0.72502082     0.08500
H440        H  0.21643177  0.48296826  0.74122312     0.06000
H441        H  0.27276195  0.48481376  0.80015115     0.05800
C442        C  0.77510583  0.50240752  0.73759834     0.02900
C443        C  0.78303104  0.47760086  0.74321752    -0.13300
C444        C  0.77709952  0.46600353  0.76641388     0.00400
C445        C  0.75988577  0.47822339  0.78268496    -0.11800
C446        C  0.74992229  0.50233199  0.77686026     0.02900
C447        C  0.75817345  0.51484287  0.75443548    -0.11200
H448        H  0.79578508  0.46810884  0.73017039     0.08500
H449        H  0.75487919  0.46952387  0.80064751     0.06000
H450        H  0.75189588  0.53403370  0.75039823     0.05800
C451        C  0.23332892  0.25910234  0.97479870     0.02900
C452        C  0.23999494  0.23313380  0.97715795    -0.13300
C453        C  0.26594205  0.22611652  0.97696475     0.00400
C454        C  0.28462005  0.24495118  0.97451840    -0.11800
C455        C  0.27798609  0.27048226  0.97188425     0.02900
C456        C  0.25244536  0.27743348  0.97186656    -0.11200
H457        H  0.22537779  0.21878910  0.97941297     0.08500
H458        H  0.30453785  0.23963719  0.97445085     0.06000
H459        H  0.24739250  0.29736996  0.97019968     0.05800
O460        O  0.50444823  0.45615523  0.07402003    -0.80400
O461        O  0.51563329  0.46606609  0.93000993    -0.81900
O462        O  0.47007653  0.42922303  0.99440723    -0.78900
O463        O  0.55314388  0.43104675  0.00251526    -0.77300
O464        O  0.58349135  0.46204101  0.00632743    -0.79100
O465        O  0.43890641  0.45947987  0.99517023    -0.80100
O466        O  0.51443552  0.43279453  0.95800787    -0.81400
O467        O  0.50729268  0.42667117  0.04221726    -0.81700
Eu468      Eu  0.51109582  0.45054074  0.00158830     2.39200
O469        O  0.53823794  0.47884994  0.97967523    -0.89200
O470        O  0.48287714  0.47376985  0.02740502    -0.92800
C471        C  0.50494887  0.43303739  0.06589374     1.01900
C472        C  0.51554953  0.44200671  0.93518660     1.01700
C473        C  0.44667527  0.43637565  0.99247069     1.01700
C474        C  0.57641410  0.43861401  0.00412016     0.99500
H475        H  0.47739602  0.46828353  0.96380421     0.29300
O476        O  0.48686400  0.47805169  0.97612249    -1.01600
H477        H  0.54505610  0.46386650  0.04146912     0.29300
O478        O  0.53511958  0.47495053  0.03067767    -1.04100
O479        O  0.51397747  0.54889277  0.93572119    -0.81300
O480        O  0.50564622  0.53851246  0.07997319    -0.80900
O481        O  0.44016311  0.50386569  0.95831130    -0.79300
O482        O  0.58533101  0.50978830  0.96771449    -0.82700
O483        O  0.58015188  0.50110894  0.05243717    -0.80500
O484        O  0.43490346  0.49815233  0.04248543    -0.79200
O485        O  0.46593155  0.57411082  0.00758862    -0.80700
O486        O  0.54919471  0.57423759  0.02156139    -0.82600
O487        O  0.43703235  0.54175643  0.00370990    -0.79300
O488        O  0.58066180  0.54422829  0.02143268    -0.82000
O489        O  0.47339375  0.50693357  0.93051730    -0.77800
O490        O  0.46441346  0.49746534  0.07433062    -0.77800
O491        O  0.54666365  0.49945392  0.08003597    -0.77400
O492        O  0.55602324  0.50932120  0.93560126    -0.80900
O493        O  0.51337306  0.57867861  0.96737704    -0.80300
O494        O  0.50617498  0.57216242  0.05240441    -0.78700
Eu495      Eu  0.51361617  0.50621319  0.95429200     2.39800
Eu496      Eu  0.50681223  0.49879212  0.05572100     2.39600
Eu497      Eu  0.45859336  0.50113964  0.00168841     2.38400
Eu498      Eu  0.56208502  0.50343734  0.00863066     2.39900
Eu499      Eu  0.50872961  0.55481174  0.00841873     2.39800
O500        O  0.53286416  0.52645645  0.03294614    -0.93100
O501        O  0.48521886  0.52973754  0.97955127    -0.92000
C502        C  0.51434506  0.57212927  0.94357197     1.02100
C503        C  0.50569457  0.56257222  0.07512455     1.00800
C504        C  0.44940167  0.50573723  0.93556283     1.00200
C505        C  0.57904393  0.51085930  0.94386938     1.02200
C506        C  0.57069983  0.50035192  0.07519799     1.01100
C507        C  0.44129945  0.49733465  0.06626187     1.00000
C508        C  0.44298103  0.56538980  0.00597867     1.00000
C509        C  0.57216645  0.56678590  0.02600823     1.02600
H510        H  0.47069642  0.53560718  0.04128180     0.30000
O511        O  0.48209871  0.52613689  0.03047061    -1.05300
H512        H  0.54859311  0.54293677  0.97424680     0.32100
O513        O  0.53747532  0.53124269  0.98312480    -1.07800
C514        C  0.72125200  0.74929349  0.98876887     0.02900
C515        C  0.74090552  0.73447684  0.97782420    -0.13300
C516        C  0.75000802  0.71271671  0.99088907     0.00400
C517        C  0.73773685  0.70496564  0.01328561    -0.11800
C518        C  0.71777501  0.71910611  0.02379118     0.02900
C519        C  0.71089139  0.74197290  0.01216935    -0.11200
H520        H  0.74909514  0.73991740  0.95973473     0.08500
H521        H  0.74315769  0.68700599  0.02178994     0.06000
H522        H  0.69581588  0.75334286  0.02036816     0.05800
C523        C  0.24391071  0.75906708  0.97935566     0.02900
C524        C  0.26307717  0.74179610  0.98568523    -0.13300
C525        C  0.25812914  0.71578268  0.98755931     0.00400
C526        C  0.23337911  0.70689286  0.98381373    -0.11800
C527        C  0.21359969  0.72363646  0.97765032     0.02900
C528        C  0.21885072  0.75002404  0.97520900    -0.11200
H529        H  0.28222539  0.74876609  0.98891706     0.08500
H530        H  0.22951119  0.68665991  0.98503648     0.06000
H531        H  0.20383922  0.76315424  0.97016057     0.05800
C532        C  0.76628941  0.23690201  0.97175495     0.02900
C533        C  0.74950127  0.25738216  0.97342069    -0.13300
C534        C  0.72332263  0.25355227  0.97403255     0.00400
C535        C  0.71358501  0.22883856  0.97288589    -0.11800
C536        C  0.72997333  0.20786926  0.97096991     0.02900
C537        C  0.75659254  0.21184859  0.97055943    -0.11200
H538        H  0.75698685  0.27659594  0.97464997     0.08500
H539        H  0.69318761  0.22589529  0.97339668     0.06000
H540        H  0.76943548  0.19582523  0.96926158     0.05800
C541        C  0.59628002  0.41887010  0.00284178    -0.03600
C542        C  0.62204838  0.42551097  0.99996718    -0.09400
C543        C  0.64043440  0.40660878  0.99687637    -0.17000
C544        C  0.63321144  0.38099543  0.99679228     0.25100
C545        C  0.60779182  0.37422121  0.00029641    -0.18700
C546        C  0.58942624  0.39299151  0.00332659    -0.07600
C547        C  0.65149894  0.36137043  0.99252040    -0.14000
C548        C  0.66481968  0.34324224  0.98878936    -0.13800
C549        C  0.67890974  0.32039519  0.98454236     0.25000
C550        C  0.67581544  0.29971078  0.00102958    -0.19200
C551        C  0.68953859  0.27737378  0.99701310    -0.07700
C552        C  0.70655627  0.27573309  0.97656936    -0.03700
C553        C  0.70924119  0.29641009  0.95985141    -0.09000
C554        C  0.69537305  0.31864028  0.96377413    -0.16700
H555        H  0.62792622  0.44525649  0.99951354     0.11500
H556        H  0.66014471  0.41195735  0.99419732     0.10700
H557        H  0.60210488  0.35439492  0.00032581     0.10700
H558        H  0.56981409  0.38718387  0.00568480     0.11200
H559        H  0.66300035  0.30095723  0.01710070     0.11300
H560        H  0.68752509  0.26172360  0.01026955     0.11200
H561        H  0.72233433  0.29541192  0.94399346     0.11400
H562        H  0.69768849  0.33450919  0.95082012     0.10200
C563        C  0.27923919  0.69784307  0.99186612    -0.03600
C564        C  0.30222275  0.70112670  0.97864497    -0.09400
C565        C  0.32205293  0.68395735  0.98190869    -0.17000
C566        C  0.31915868  0.66333015  0.99838429     0.25100
C567        C  0.29643264  0.65987960  0.01176081    -0.18700
C568        C  0.27649615  0.67709711  0.00852453    -0.07600
C569        C  0.33973166  0.64589044  0.00146043    -0.14000
C570        C  0.35775642  0.63207098  0.00331390    -0.13800
C571        C  0.37942196  0.61580385  0.00503683     0.25000
C572        C  0.37607414  0.59026974  0.01142974    -0.19200
C573        C  0.39696363  0.57411273  0.01233222    -0.07700
C574        C  0.42150430  0.58330989  0.00676047    -0.03700
C575        C  0.42480175  0.60918398  0.00096510    -0.09000
C576        C  0.40376117  0.62535119  0.99999536    -0.16700
H577        H  0.30468569  0.71670827  0.96539036     0.11500
H578        H  0.33959785  0.68668403  0.97146489     0.10700
H579        H  0.29414146  0.64393522  0.02462426     0.10700
H580        H  0.25904417  0.67430858  0.01907883     0.11200
H581        H  0.35729753  0.58278778  0.01545947     0.11300
H582        H  0.39382859  0.55432463  0.01718390     0.11200
H583        H  0.44344703  0.61673229  0.99656194     0.11400
H584        H  0.40641316  0.64518611  0.99503862     0.10200
C585        C  0.58957081  0.58498386  0.03869969    -0.03600
C586        C  0.61499129  0.57833339  0.04385620    -0.09400
C587        C  0.63092282  0.59509539  0.05700228    -0.17000
C588        C  0.62159105  0.61853430  0.06542620     0.25100
C589        C  0.59629102  0.62512943  0.06078111    -0.18700
C590        C  0.58035838  0.60848172  0.04760353    -0.07600
C591        C  0.63867381  0.63734314  0.07539725    -0.14000
C592        C  0.65294425  0.65503670  0.07797705    -0.13800
C593        C  0.66896870  0.67627408  0.07207443     0.25000
C594        C  0.65883825  0.69558838  0.05693711    -0.19200
C595        C  0.67490810  0.71120615  0.04286178    -0.07700
C596        C  0.70146591  0.70791902  0.04401469    -0.03700
C597        C  0.71147494  0.69059757  0.06182832    -0.09000
C598        C  0.69526292  0.67456529  0.07552533    -0.16700
H599        H  0.62263932  0.56026961  0.03762137     0.11500
H600        H  0.65063559  0.59001885  0.06009484     0.10700
H601        H  0.58901869  0.64342571  0.06683832     0.10700
H602        H  0.56081542  0.61406592  0.04442100     0.11200
H603        H  0.63849839  0.69687513  0.05391915     0.11300
H604        H  0.66625001  0.72399538  0.02927865     0.11200
H605        H  0.73179358  0.68810375  0.06380472     0.11400
H606        H  0.70328943  0.65956764  0.08714007     0.10200
C607        C  0.29787195  0.29000470  0.96992999    -0.03600
C608        C  0.29822840  0.30697513  0.94931677    -0.09400
C609        C  0.31734629  0.32534769  0.94750973    -0.17000
C610        C  0.33598490  0.32694556  0.96642765     0.25100
C611        C  0.33551605  0.31023086  0.98712386    -0.18700
C612        C  0.31660633  0.29173148  0.98881715    -0.07600
C613        C  0.35534752  0.34605658  0.96521149    -0.14000
C614        C  0.37168569  0.36196062  0.96672750    -0.13800
C615        C  0.39068170  0.38084927  0.97166194     0.25000
C616        C  0.41638028  0.37412584  0.97220293    -0.19200
C617        C  0.43467095  0.39209408  0.97920540    -0.07700
C618        C  0.42738850  0.41699499  0.98579174    -0.03700
C619        C  0.40147039  0.42357216  0.98482492    -0.09000
C620        C  0.38326780  0.40558519  0.97784558    -0.16700
H621        H  0.28389368  0.30579654  0.93457705     0.11500
H622        H  0.31754775  0.33831012  0.93149130     0.10700
H623        H  0.34974951  0.31153441  0.00196150     0.10700
H624        H  0.31639937  0.27893249  0.00496761     0.11200
H625        H  0.42223519  0.35492661  0.96756341     0.11300
H626        H  0.45446038  0.38647931  0.97943620     0.11200
H627        H  0.39517819  0.44258607  0.98958274     0.11400
H628        H  0.36336926  0.41087183  0.97764044     0.10200
C629        C  0.73156188  0.51368539  0.79527769    -0.03600
C630        C  0.70674127  0.52004376  0.78770038    -0.09400
C631        C  0.68769987  0.52435336  0.80598132    -0.17000
C632        C  0.69326381  0.52253570  0.83204758     0.25100
C633        C  0.71831846  0.51780301  0.83963828    -0.18700
C634        C  0.73727625  0.51349585  0.82146618    -0.07600
C635        C  0.67319675  0.52361357  0.85098745    -0.14000
C636        C  0.65678814  0.52290991  0.86719135    -0.13800
C637        C  0.63719157  0.52066647  0.88651111     0.25000
C638        C  0.61264400  0.51289408  0.87975343    -0.19200
C639        C  0.59387543  0.50980581  0.89838710    -0.07700
C640        C  0.59929787  0.51424447  0.92429138    -0.03700
C641        C  0.62395343  0.52226388  0.93092296    -0.09000
C642        C  0.64270672  0.52548451  0.91217342    -0.16700
H643        H  0.70170009  0.52000089  0.76774029     0.11500
H644        H  0.66841998  0.52801017  0.79976930     0.10700
H645        H  0.72302338  0.51637971  0.85964520     0.10700
H646        H  0.75621813  0.50863555  0.82789536     0.11200
H647        H  0.60802356  0.50902580  0.86005407     0.11300
H648        H  0.57513958  0.50363972  0.89246684     0.11200
H649        H  0.62872878  0.52613990  0.95056744     0.11400
H650        H  0.66158357  0.53155314  0.91773622     0.10200
C651        C  0.43156308  0.50649257  0.91347333    -0.03600
C652        C  0.40512937  0.50347395  0.91663333    -0.09400
C653        C  0.38872481  0.50437969  0.89555292    -0.17000
C654        C  0.39844356  0.50834434  0.87101181     0.25100
C655        C  0.42467331  0.51108943  0.86772226    -0.18700
C656        C  0.44105338  0.51016221  0.88866068    -0.07600
C657        C  0.38172719  0.50955493  0.84911875    -0.14000
C658        C  0.36797997  0.51011938  0.83062703    -0.13800
C659        C  0.35053916  0.50926658  0.80929421     0.25000
C660        C  0.33553973  0.53044416  0.80309813    -0.19200
C661        C  0.31557283  0.52808367  0.78552158    -0.07700
C662        C  0.31048875  0.50454571  0.77390031    -0.03700
C663        C  0.32678645  0.48396447  0.77877565    -0.09000
C664        C  0.34668709  0.48632170  0.79630426    -0.16700
H665        H  0.39711809  0.50042195  0.93534956     0.11500
H666        H  0.36846635  0.50205917  0.89841499     0.10700
H667        H  0.43251912  0.51403670  0.84890646     0.10700
H668        H  0.46122942  0.51246558  0.88533185     0.11200
H669        H  0.33825482  0.54832356  0.81297300     0.11300
H670        H  0.30285917  0.54400362  0.78257960     0.11200
H671        H  0.32281465  0.46548720  0.77056358     0.11400
H672        H  0.35806090  0.46977324  0.80087238     0.10200
C673        C  0.42113060  0.49633014  0.08606804    -0.03600
C674        C  0.42769314  0.49080145  0.11147862    -0.09400
C675        C  0.40923225  0.49032869  0.13055125    -0.17000
C676        C  0.38383266  0.49542014  0.12472938     0.25100
C677        C  0.37700311  0.50097295  0.09952690    -0.18700
C678        C  0.39550965  0.50138206  0.08029049    -0.07600
C679        C  0.36503591  0.49524115  0.14480020    -0.14000
C680        C  0.34955547  0.49559105  0.16181550    -0.13800
C681        C  0.33005562  0.49724226  0.18114395     0.25000
C682        C  0.31402633  0.51843704  0.18158076    -0.19200
C683        C  0.29322849  0.51912143  0.19807743    -0.07700
C684        C  0.28801455  0.49857930  0.21441767    -0.03700
C685        C  0.30494670  0.47792787  0.21498995    -0.09000
C686        C  0.32591283  0.47728191  0.19842897    -0.16700
H687        H  0.44718014  0.48677375  0.11672468     0.11500
H688        H  0.41482476  0.48605993  0.14991463     0.10700
H689        H  0.35740527  0.50508109  0.09476032     0.10700
H690        H  0.38982832  0.50591874  0.06102658     0.11200
H691        H  0.31690407  0.53395751  0.16831959     0.11300
H692        H  0.28008548  0.53491822  0.19681739     0.11200
H693        H  0.30092811  0.46156655  0.22685555     0.11400
H694        H  0.33814335  0.46072246  0.19827587     0.10200
C695        C  0.58824751  0.50054480  0.09761511    -0.03600
C696        C  0.57846746  0.50443659  0.12229209    -0.09400
C697        C  0.59439519  0.50405594  0.14363267    -0.17000
C698        C  0.62048361  0.49974073  0.14093379     0.25100
C699        C  0.63055389  0.49615899  0.11645974    -0.18700
C700        C  0.61460572  0.49663839  0.09496772    -0.07600
C701        C  0.63669671  0.49923182  0.16332469    -0.14000
C702        C  0.65003422  0.49944575  0.18217546    -0.13800
C703        C  0.66724311  0.50083121  0.20375577     0.25000
C704        C  0.67756647  0.47864868  0.21441669    -0.19200
C705        C  0.69780095  0.48023594  0.23178233    -0.07700
C706        C  0.70791618  0.50402819  0.23874868    -0.03700
C707        C  0.69590798  0.52615679  0.22979829    -0.09000
C708        C  0.67577615  0.52457011  0.21240786    -0.16700
H709        H  0.55838211  0.50780207  0.12520377     0.11500
H710        H  0.58628308  0.50706001  0.16232031     0.10700
H711        H  0.65072552  0.49291500  0.11397633     0.10700
H712        H  0.62285476  0.49364593  0.07635468     0.11200
H713        H  0.67122238  0.46012457  0.20798177     0.11300
H714        H  0.70721638  0.46290963  0.23772612     0.11200
H715        H  0.70386343  0.54466709  0.23415830     0.11400
H716        H  0.66807883  0.54190670  0.20437695     0.10200
C717        C  0.89608928  0.55983089  0.96967039    -0.03600
C718        C  0.90258218  0.58551333  0.96517384    -0.09400
C719        C  0.88398324  0.60451348  0.96468259    -0.17000
C720        C  0.85840217  0.59842541  0.96864960     0.25100
C721        C  0.85162679  0.57294204  0.97309712    -0.18700
C722        C  0.87028900  0.55377409  0.97353720    -0.07600
C723        C  0.83945316  0.61854047  0.96861639    -0.14000
C724        C  0.82457477  0.63617465  0.96943960    -0.13800
C725        C  0.80747382  0.65764845  0.97267275     0.25000
C726        C  0.78842187  0.66321857  0.95475459    -0.19200
C727        C  0.77066313  0.68272539  0.95944079    -0.07700
C728        C  0.77177546  0.69683335  0.98213761    -0.03700
C729        C  0.79164852  0.69183571  0.99935158    -0.09000
C730        C  0.80927097  0.67249684  0.99467492    -0.16700
H731        H  0.92215722  0.59106674  0.96203636     0.11500
H732        H  0.88963020  0.62405603  0.96130383     0.10700
H733        H  0.83193217  0.56788949  0.97634762     0.10700
H734        H  0.86456070  0.53431941  0.97717823     0.11200
H735        H  0.78674332  0.65192771  0.93761566     0.11300
H736        H  0.75527245  0.68577732  0.94611892     0.11200
H737        H  0.79274944  0.70216295  0.01713852     0.11400
H738        H  0.82381125  0.66855248  0.00871992     0.10200
C739        C  0.79359285  0.24352033  0.97148629    -0.03600
C740        C  0.80425771  0.25260891  0.94872165    -0.09400
C741        C  0.82499935  0.26938762  0.94922619    -0.17000
C742        C  0.83532064  0.27728458  0.97251049     0.25100
C743        C  0.82611751  0.26658810  0.99512516    -0.18700
C744        C  0.80537445  0.24983519  0.99462620    -0.07600
C745        C  0.85294819  0.29848345  0.97347275    -0.14000
C746        C  0.86612165  0.31738288  0.97469393    -0.13800
C747        C  0.88142968  0.34030880  0.97608303     0.25000
C748        C  0.90775778  0.33883146  0.97298351    -0.19200
C749        C  0.92264465  0.36088087  0.97370516    -0.07700
C750        C  0.91154754  0.38505762  0.97747000    -0.03700
C751        C  0.88504768  0.38638627  0.98082899    -0.09000
C752        C  0.87013453  0.36415720  0.98018984    -0.16700
H753        H  0.79496214  0.24875244  0.93074946     0.11500
H754        H  0.83178270  0.27756237  0.93157290     0.10700
H755        H  0.83377812  0.27258844  0.01328043     0.10700
H756        H  0.79695488  0.24383693  0.01244321     0.11200
H757        H  0.91682383  0.32060919  0.96981511     0.11300
H758        H  0.94294317  0.35891129  0.97097702     0.11200
H759        H  0.87585868  0.40454054  0.98389876     0.11400
H760        H  0.84975927  0.36559824  0.98271708     0.10200
C761        C  0.06423185  0.57334572  0.97140419    -0.03600
C762        C  0.05465654  0.59832564  0.97355457    -0.09400
C763        C  0.07105510  0.61940300  0.97398524    -0.17000
C764        C  0.09740677  0.61609007  0.97219260     0.25100
C765        C  0.10714919  0.59134223  0.96992558    -0.18700
C766        C  0.09076568  0.57017878  0.96956893    -0.07600
C767        C  0.11436440  0.63801662  0.97257855    -0.14000
C768        C  0.12892777  0.65600403  0.97265309    -0.13800
C769        C  0.14760910  0.67647748  0.97232437     0.25000
C770        C  0.15102880  0.69231851  0.99355989    -0.19200
C771        C  0.17116612  0.70994026  0.99426920    -0.07700
C772        C  0.18812202  0.71205343  0.97372095    -0.03700
C773        C  0.18387993  0.69695825  0.95205159    -0.09000
C774        C  0.16375928  0.67942422  0.95132442    -0.16700
H775        H  0.03441570  0.60165638  0.97511434     0.11500
H776        H  0.06312662  0.63832843  0.97575284     0.10700
H777        H  0.12746365  0.58837307  0.96846785     0.10700
H778        H  0.09890127  0.55135003  0.96785095     0.11200
H779        H  0.13887134  0.69024312  0.01004705     0.11300
H780        H  0.17455124  0.72066275  0.01152185     0.11200
H781        H  0.19716720  0.69758049  0.93633693     0.11400
H782        H  0.16155449  0.66730053  0.93481890     0.10200
C783        C  0.07738079  0.40042486  0.97849223    -0.03600
C784        C  0.07238432  0.37603283  0.98845460    -0.09400
C785        C  0.09060235  0.35675675  0.98706340    -0.17000
C786        C  0.11413092  0.36136130  0.97558380     0.25100
C787        C  0.11957913  0.38574548  0.96611381    -0.18700
C788        C  0.10136196  0.40520582  0.96765118    -0.07600
C789        C  0.13244868  0.34091964  0.97370173    -0.14000
C790        C  0.14735446  0.32339133  0.97331625    -0.13800
C791        C  0.16597357  0.30317038  0.97456219     0.25000
C792        C  0.17261034  0.28924928  0.95279867    -0.19200
C793        C  0.19305710  0.27212715  0.95355540    -0.07700
C794        C  0.20697266  0.26869401  0.97609870    -0.03700
C795        C  0.19920749  0.28154203  0.99818217    -0.09000
C796        C  0.17884101  0.29861410  0.99741932    -0.16700
H797        H  0.05421667  0.37173465  0.99714328     0.11500
H798        H  0.08618775  0.33811489  0.99469131     0.10700
H799        H  0.13776820  0.38963885  0.95728337     0.10700
H800        H  0.10573480  0.42370748  0.95969697     0.11200
H801        H  0.16288145  0.29259153  0.93495730     0.11300
H802        H  0.19923680  0.26307577  0.93613115     0.11200
H803        H  0.21017413  0.27984193  0.01553279     0.11400
H804        H  0.17400202  0.30926435  0.01436705     0.10200
C805        C  0.90600696  0.45145587  0.89121917    -0.03600
C806        C  0.91505206  0.44483892  0.86689343    -0.09400
C807        C  0.89990067  0.43081759  0.85022824    -0.17000
C808        C  0.87554570  0.42318110  0.85760501     0.25100
C809        C  0.86605458  0.43026729  0.88139902    -0.18700
C810        C  0.88118771  0.44425579  0.89816425    -0.07600
C811        C  0.85909042  0.41117855  0.83950709    -0.14000
C812        C  0.84388850  0.40731591  0.82291651    -0.13800
C813        C  0.82598287  0.41310860  0.80330852     0.25000
C814        C  0.79993970  0.41232066  0.80857763    -0.19200
C815        C  0.78314688  0.42740552  0.79452340    -0.07700
C816        C  0.79246715  0.44402016  0.77563557    -0.03700
C817        C  0.81834386  0.44232601  0.76881492    -0.09000
C818        C  0.83484988  0.42681161  0.78240638    -0.16700
H819        H  0.93406384  0.44996637  0.86088456     0.11500
H820        H  0.90713059  0.42606625  0.83153693     0.10700
H821        H  0.84690348  0.42508203  0.88694010     0.10700
H822        H  0.87362057  0.44895961  0.91671320     0.11200
H823        H  0.79292516  0.40191359  0.82492426     0.11300
H824        H  0.76327690  0.42746519  0.79980621     0.11200
H825        H  0.82670291  0.45487274  0.75483266     0.11400
H826        H  0.85504276  0.42790131  0.77844596     0.10200
C827        C  0.07325769  0.47878329  0.89109443    -0.03600
C828        C  0.06939401  0.46830620  0.86677487    -0.09400
C829        C  0.09018737  0.46329480  0.85095277    -0.17000
C830        C  0.11484682  0.46880055  0.85935213     0.25100
C831        C  0.11866148  0.48028850  0.88294705    -0.18700
C832        C  0.09806803  0.48528928  0.89869579    -0.07600
C833        C  0.13661302  0.46290081  0.84415814    -0.14000
C834        C  0.15644788  0.46046536  0.83314063    -0.13800
C835        C  0.18043571  0.46165283  0.82037387     0.25000
C836        C  0.19949102  0.47767973  0.82980680    -0.19200
C837        C  0.22084184  0.48307846  0.81500123    -0.07700
C838        C  0.22325439  0.47242510  0.79061370    -0.03700
C839        C  0.20505058  0.45459947  0.78232597    -0.09000
C840        C  0.18362147  0.44944147  0.79703727    -0.16700
H841        H  0.05051782  0.46309381  0.86041217     0.11500
H842        H  0.08710045  0.45466699  0.83250641     0.10700
H843        H  0.13766785  0.48494035  0.88941399     0.10700
H844        H  0.10171177  0.49364080  0.91716142     0.11200
H845        H  0.19711775  0.48719542  0.84792251     0.11300
H846        H  0.23445872  0.49691230  0.82189368     0.11200
H847        H  0.20675582  0.44560563  0.76388997     0.11400
H848        H  0.16899638  0.43693343  0.78965482     0.10200
C849        C  0.07113728  0.48875261  0.05993683    -0.03600
C850        C  0.06383568  0.49199027  0.08547372    -0.09400
C851        C  0.08205147  0.49249601  0.10472684    -0.17000
C852        C  0.10776828  0.48977243  0.09876281     0.25100
C853        C  0.11533732  0.48683506  0.07344405    -0.18700
C854        C  0.09713929  0.48637638  0.05409587    -0.07600
C855        C  0.12628419  0.48969646  0.11874609    -0.14000
C856        C  0.14154111  0.48948723  0.13575269    -0.13800
C857        C  0.15991401  0.48923132  0.15585603     0.25000
C858        C  0.18197184  0.47467396  0.15334509    -0.19200
C859        C  0.20029020  0.47496549  0.17250483    -0.07700
C860        C  0.19679111  0.48996502  0.19435698    -0.03700
C861        C  0.17433891  0.50423642  0.19688899    -0.09000
C862        C  0.15598622  0.50383102  0.17772322    -0.16700
H863        H  0.04402597  0.49400673  0.09064927     0.11500
H864        H  0.07605575  0.49483257  0.12429279     0.10700
H865        H  0.13525679  0.48471528  0.06868721     0.10700
H866        H  0.10341201  0.48381251  0.03466083     0.11200
H867        H  0.18509150  0.46324306  0.13649967     0.11300
H868        H  0.21721593  0.46350251  0.17020827     0.11200
H869        H  0.17128003  0.51623492  0.21333037     0.11400
H870        H  0.13893674  0.51517852  0.17978187     0.10200
C871        C  0.90235740  0.48337907  0.05991006    -0.03600
C872        C  0.87675053  0.47668879  0.05598848    -0.09400
C873        C  0.85918039  0.47888081  0.07584481    -0.17000
C874        C  0.86708890  0.48790487  0.09961154     0.25100
C875        C  0.89239838  0.49476758  0.10354813    -0.18700
C876        C  0.90991213  0.49253117  0.08390094    -0.07600
C877        C  0.84956205  0.49051052  0.12023275    -0.14000
C878        C  0.83690178  0.49384667  0.13891874    -0.13800
C879        C  0.82316030  0.49858097  0.16189756     0.25000
C880        C  0.82917454  0.48504913  0.18400433    -0.19200
C881        C  0.81527423  0.48910554  0.20621273    -0.07700
C882        C  0.79518164  0.50664625  0.20637490    -0.03700
C883        C  0.78986578  0.52080971  0.18434235    -0.09000
C884        C  0.80383731  0.51679271  0.16219569    -0.16700
H885        H  0.87038047  0.46961149  0.03773368     0.11500
H886        H  0.83953015  0.47357539  0.07268416     0.10700
H887        H  0.89861958  0.50189365  0.12185915     0.10700
H888        H  0.92938666  0.49814790  0.08753416     0.11200
H889        H  0.84425960  0.47104056  0.18393148     0.11300
H890        H  0.81949397  0.47780782  0.22291275     0.11200
H891        H  0.77455724  0.53456618  0.18415680     0.11400
H892        H  0.79929680  0.52754788  0.14521668     0.10200
C893        C  0.51648698  0.42382219  0.91332372    -0.03600
C894        C  0.51857604  0.39738353  0.91732935    -0.09400
C895        C  0.51902307  0.38042383  0.89670070    -0.17000
C896        C  0.51734154  0.38950469  0.87167356     0.25100
C897        C  0.51528217  0.41574312  0.86750965    -0.18700
C898        C  0.51489546  0.43272817  0.88806702    -0.07600
C899        C  0.51684124  0.37195282  0.85034233    -0.14000
C900        C  0.51504091  0.35717929  0.83269899    -0.13800
C901        C  0.51052943  0.33881438  0.81256331     0.25000
C902        C  0.48568268  0.33054577  0.80779377    -0.19200
C903        C  0.48107365  0.31096291  0.79038581    -0.07700
C904        C  0.50123121  0.29924817  0.77730692    -0.03700
C905        C  0.52604200  0.30849331  0.78106674    -0.09000
C906        C  0.53067330  0.32811914  0.79867584    -0.16700
H907        H  0.51980635  0.38975382  0.93641369     0.11500
H908        H  0.52049404  0.36018618  0.90030638     0.10700
H909        H  0.51378565  0.42310701  0.84832690     0.10700
H910        H  0.51311107  0.45286513  0.88412360     0.11200
H911        H  0.46989537  0.33857874  0.81827663     0.11300
H912        H  0.46181496  0.30404153  0.78802577     0.11200
H913        H  0.54194167  0.29949228  0.77160988     0.11400
H914        H  0.55002304  0.33426666  0.80212773     0.10200
C915        C  0.51629633  0.59211020  0.92334445    -0.03600
C916        C  0.51226627  0.58545289  0.89764068    -0.09400
C917        C  0.51490885  0.60343661  0.87816124    -0.17000
C918        C  0.52171485  0.62855230  0.88375921     0.25100
C919        C  0.52568660  0.63550087  0.90926158    -0.18700
C920        C  0.52295269  0.61746769  0.92890710    -0.07600
C921        C  0.52393451  0.64710163  0.86330909    -0.14000
C922        C  0.52456503  0.66252048  0.84608257    -0.13800
C923        C  0.52337769  0.68198115  0.82641610     0.25000
C924        C  0.52042182  0.67554872  0.80062463    -0.19200
C925        C  0.51597154  0.69459654  0.78229186    -0.07700
C926        C  0.51434580  0.72029160  0.78957474    -0.03700
C927        C  0.51866656  0.72660184  0.81521736    -0.09000
C928        C  0.52314895  0.70767359  0.83340771    -0.16700
H929        H  0.50700236  0.56621747  0.89246138     0.11500
H930        H  0.51159709  0.59769569  0.85865609     0.10700
H931        H  0.53089161  0.65487401  0.91398084     0.10700
H932        H  0.52634915  0.62328670  0.94835630     0.11200
H933        H  0.52046739  0.65577293  0.79484441     0.11300
H934        H  0.51223563  0.68914932  0.76279011     0.11200
H935        H  0.51720911  0.74620033  0.82139722     0.11400
H936        H  0.52533669  0.71305334  0.85316833     0.10200
C937        C  0.51736989  0.70023044  0.23771736    -0.03600
C938        C  0.49338246  0.69075269  0.23054874    -0.09400
C939        C  0.49128209  0.67065983  0.21313114    -0.17000
C940        C  0.51313501  0.65955835  0.20274110     0.25100
C941        C  0.53707998  0.66744250  0.21145236    -0.18700
C942        C  0.53918875  0.68764589  0.22879043    -0.07600
C943        C  0.51105355  0.64202119  0.18151637    -0.14000
C944        C  0.50942256  0.62840569  0.16296418    -0.13800
C945        C  0.50771013  0.61219642  0.14068956     0.25000
C946        C  0.51150673  0.62217169  0.11621670    -0.19200
C947        C  0.51041170  0.60626207  0.09478262    -0.07700
C948        C  0.50556073  0.58004880  0.09748853    -0.03700
C949        C  0.50151911  0.57031052  0.12217222    -0.09000
C950        C  0.50256092  0.58622322  0.14349023    -0.16700
H951        H  0.47630891  0.70070812  0.23628412     0.11500
H952        H  0.47262525  0.66493441  0.20653501     0.10700
H953        H  0.55417906  0.65914705  0.20355827     0.10700
H954        H  0.55787142  0.69513672  0.23316116     0.11200
H955        H  0.51553953  0.64222858  0.11370267     0.11300
H956        H  0.51378359  0.61440849  0.07617268     0.11200
H957        H  0.49768706  0.55027753  0.12511255     0.11400
H958        H  0.49954527  0.57818301  0.16222089     0.10200
C959        C  0.50300814  0.41281028  0.08555626    -0.03600
C960        C  0.51241127  0.38815922  0.08121271    -0.09400
C961        C  0.51255714  0.37009096  0.10087502    -0.17000
C962        C  0.50309350  0.37634043  0.12501654     0.25100
C963        C  0.49293854  0.40054684  0.12919106    -0.18700
C964        C  0.49290925  0.41862352  0.10968687    -0.07600
C965        C  0.50405889  0.35815127  0.14563414    -0.14000
C966        C  0.50480399  0.34280013  0.16276672    -0.13800
C967        C  0.50556502  0.32315880  0.18201503     0.25000
C968        C  0.48504672  0.30635387  0.18458640    -0.19200
C969        C  0.48706972  0.28501598  0.20037708    -0.07700
C970        C  0.50958474  0.28031008  0.21394504    -0.03700
C971        C  0.52954804  0.29800069  0.21251510    -0.09000
C972        C  0.52754664  0.31933907  0.19661938    -0.16700
H973        H  0.52035148  0.38310724  0.06291096     0.11500
H974        H  0.52038894  0.35137522  0.09735101     0.10700
H975        H  0.48536588  0.40560068  0.14766194     0.10700
H976        H  0.48522686  0.43731858  0.11362461     0.11200
H977        H  0.46799187  0.30898752  0.17334790     0.11300
H978        H  0.47174331  0.27123672  0.20067126     0.11200
H979        H  0.54732339  0.29431605  0.22222238     0.11400
H980        H  0.54362090  0.33209857  0.19472977     0.10200
C981        C  0.58157527  0.05772715  0.97423395    -0.03600
C982        C  0.60630897  0.04791246  0.97089327    -0.09400
C983        C  0.62750647  0.06406261  0.97044878    -0.17000
C984        C  0.62449637  0.09034706  0.97336917     0.25100
C985        C  0.60003216  0.10032573  0.97683183    -0.18700
C986        C  0.57874775  0.08419415  0.97725398    -0.07600
C987        C  0.64640719  0.10708817  0.97255654    -0.14000
C988        C  0.66418054  0.12175871  0.97170022    -0.13800
C989        C  0.68414459  0.14076622  0.97060911     0.25000
C990        C  0.68895681  0.15381007  0.94785355    -0.19200
C991        C  0.70577330  0.17451454  0.94748812    -0.07700
C992        C  0.71820834  0.18230021  0.96982329    -0.03700
C993        C  0.71425796  0.16845551  0.99231982    -0.09000
C994        C  0.69733513  0.14779983  0.99270632    -0.16700
H995        H  0.60936234  0.02768612  0.96851816     0.11500
H996        H  0.64625748  0.05601615  0.96774886     0.10700
H997        H  0.59738475  0.12062752  0.97914044     0.10700
H998        H  0.56011170  0.09246294  0.97996029     0.11200
H999        H  0.67882364  0.14873747  0.93064990     0.11300
H1000       H  0.70802342  0.18535012  0.93010854     0.11200
H1001       H  0.72305955  0.17460530  0.00989343     0.11400
H1002       H  0.69369485  0.13805484  0.01049030     0.10200
C1003       C  0.39459196  0.90439145  0.98026538    -0.03600
C1004       C  0.36995487  0.91498175  0.98130406    -0.09400
C1005       C  0.34828339  0.89950460  0.98041616    -0.17000
C1006       C  0.35060823  0.87306362  0.97852907     0.25100
C1007       C  0.37499275  0.86223531  0.97785932    -0.18700
C1008       C  0.39680154  0.87773602  0.97870142    -0.07600
C1009       C  0.32796138  0.85722617  0.97717705    -0.14000
C1010       C  0.30910441  0.84389332  0.97627405    -0.13800
C1011       C  0.28755343  0.82653775  0.97601035     0.25000
C1012       C  0.27983637  0.81474750  0.95334057    -0.19200
C1013       C  0.26224398  0.79460021  0.95387092    -0.07700
C1014       C  0.25204725  0.78602325  0.97707400    -0.03700
C1015       C  0.25834556  0.79929188  0.99942784    -0.09000
C1016       C  0.27593275  0.81936598  0.99890047    -0.16700
H1017       H  0.36729956  0.93536778  0.98253034     0.11500
H1018       H  0.32965479  0.90823763  0.98103497     0.10700
H1019       H  0.37716753  0.84179430  0.97649632     0.10700
H1020       H  0.41534060  0.86886566  0.97789641     0.11200
H1021       H  0.28864763  0.81997043  0.93546973     0.11300
H1022       H  0.25845752  0.78417801  0.93651593     0.11200
H1023       H  0.25150389  0.79252157  0.01763959     0.11400
H1024       H  0.28169464  0.82815568  0.01661638     0.10200
C1025       C  0.70795341  0.77045680  0.97562061    -0.03600
C1026       C  0.70593524  0.79412291  0.98798910    -0.09400
C1027       C  0.68586462  0.81072196  0.98240365    -0.17000
C1028       C  0.66746349  0.80401724  0.96432295     0.25100
C1029       C  0.67036353  0.78128662  0.95064961    -0.18700
C1030       C  0.69051291  0.76465731  0.95620650    -0.07600
C1031       C  0.64500469  0.81976523  0.96109788    -0.14000
C1032       C  0.62672874  0.83380028  0.95994388    -0.13800
C1033       C  0.60647419  0.85257100  0.95992317     0.25000
C1034       C  0.58084823  0.84552802  0.96267450    -0.19200
C1035       C  0.56177029  0.86423046  0.96431008    -0.07700
C1036       C  0.56806555  0.89029183  0.96335326    -0.03700
C1037       C  0.59381657  0.89699522  0.95987844    -0.09000
C1038       C  0.61271440  0.87838028  0.95822978    -0.16700
H1039       H  0.71863558  0.79874172  0.00353696     0.11500
H1040       H  0.68395984  0.82817993  0.99317496     0.10700
H1041       H  0.65632311  0.77577049  0.93662927     0.10700
H1042       H  0.69110295  0.74624752  0.94698813     0.11200
H1043       H  0.57564537  0.82562717  0.96399468     0.11300
H1044       H  0.54222028  0.85830407  0.96684463     0.11200
H1045       H  0.59955717  0.91675486  0.95880310     0.11400
H1046       H  0.63235973  0.88419916  0.95606692     0.10200
C1047       C  0.40831704  0.07100909  0.98114540    -0.03600
C1048       C  0.41412644  0.09715165  0.98247861    -0.09400
C1049       C  0.39458296  0.11543046  0.98196078    -0.17000
C1050       C  0.36903112  0.10783601  0.98000055     0.25100
C1051       C  0.36322601  0.08196055  0.97845250    -0.18700
C1052       C  0.38254706  0.06379323  0.97902043    -0.07600
C1053       C  0.34850296  0.12620364  0.97979193    -0.14000
C1054       C  0.33060089  0.14069135  0.97981240    -0.13800
C1055       C  0.30980866  0.15875418  0.98013614     0.25000
C1056       C  0.29694081  0.16503465  0.95762756    -0.19200
C1057       C  0.27972274  0.18540150  0.95722223    -0.07700
C1058       C  0.27510972  0.19963689  0.97934492    -0.03700
C1059       C  0.28670160  0.19208914  0.00220757    -0.09000
C1060       C  0.30387173  0.17174833  0.00261039    -0.16700
H1061       H  0.43366694  0.10345064  0.98400364     0.11500
H1062       H  0.39939527  0.13543758  0.98314562     0.10700
H1063       H  0.34364404  0.07574838  0.97686716     0.10700
H1064       H  0.37713502  0.04395736  0.97772370     0.11200
H1065       H  0.30132171  0.15519582  0.94007955     0.11300
H1066       H  0.27165966  0.19137546  0.93923747     0.11200
H1067       H  0.28406219  0.20327341  0.01929386     0.11400
H1068       H  0.31364842  0.16716420  0.02015002     0.10200
C1069       C  0.47919128  0.06897873  0.89648722    -0.03600
C1070       C  0.47344841  0.06369657  0.87087364    -0.09400
C1071       C  0.46642216  0.08330972  0.85440525    -0.17000
C1072       C  0.46497308  0.10829722  0.86339197     0.25100
C1073       C  0.47102713  0.11378806  0.88864179    -0.18700
C1074       C  0.47809237  0.09429238  0.90510841    -0.07600
C1075       C  0.45926188  0.12871613  0.84637360    -0.14000
C1076       C  0.45816683  0.14657402  0.83220764    -0.13800
C1077       C  0.46239225  0.16737952  0.81522639     0.25000
C1078       C  0.44816946  0.18980974  0.81699441    -0.19200
C1079       C  0.45429642  0.21063291  0.80156350    -0.07700
C1080       C  0.47462013  0.20897325  0.78431711    -0.03700
C1081       C  0.48866463  0.18631254  0.78275903    -0.09000
C1082       C  0.48255142  0.16567599  0.79808647    -0.16700
H1083       H  0.47404465  0.04442703  0.86362727     0.11500
H1084       H  0.46217397  0.07901044  0.83471022     0.10700
H1085       H  0.47035793  0.13317888  0.89559396     0.10700
H1086       H  0.48231890  0.09906256  0.92468281     0.11200
H1087       H  0.43270475  0.19131695  0.83049687     0.11300
H1088       H  0.44326340  0.22794304  0.80305902     0.11200
H1089       H  0.50477594  0.18475210  0.77004177     0.11400
H1090       H  0.49391770  0.14853095  0.79694813     0.10200
C1091       C  0.44846278  0.78689035  0.77676847    -0.03600
C1092       C  0.44785444  0.81309690  0.77089938    -0.09400
C1093       C  0.43338098  0.82985110  0.78529505    -0.17000
C1094       C  0.41962518  0.82096985  0.80613496     0.25100
C1095       C  0.41829139  0.79484311  0.81104006    -0.18700
C1096       C  0.43226868  0.77780986  0.79614080    -0.07600
C1097       C  0.41319961  0.83894734  0.82550676    -0.14000
C1098       C  0.41611542  0.85461290  0.84186728    -0.13800
C1099       C  0.42756198  0.87143753  0.85998267     0.25000
C1100       C  0.43969990  0.86109784  0.88125028    -0.19200
C1101       C  0.45414724  0.87660126  0.89719634    -0.07700
C1102       C  0.45681870  0.90269502  0.89194437    -0.03700
C1103       C  0.44455703  0.91294287  0.87043844    -0.09000
C1104       C  0.43006705  0.89735976  0.85452195    -0.16700
H1105       H  0.46025509  0.82136565  0.75675432     0.11500
H1106       H  0.43497461  0.85009844  0.78167128     0.10700
H1107       H  0.40793261  0.78781072  0.82740248     0.10700
H1108       H  0.43151840  0.75779403  0.80086481     0.11200
H1109       H  0.43838003  0.84091397  0.88525110     0.11300
H1110       H  0.46312763  0.86816018  0.91368832     0.11200
H1111       H  0.44578624  0.93305777  0.86612439     0.11400
H1112       H  0.42118353  0.90543006  0.83777663     0.10200
C1113       C  0.48515325  0.89267142  0.05849872    -0.03600
C1114       C  0.49393647  0.86795223  0.05343269    -0.09400
C1115       C  0.49466240  0.84983110  0.07286552    -0.17000
C1116       C  0.48626325  0.85623715  0.09728015     0.25100
C1117       C  0.47655246  0.88046395  0.10214146    -0.18700
C1118       C  0.47603697  0.89862054  0.08288116    -0.07600
C1119       C  0.48944305  0.83887019  0.11796789    -0.14000
C1120       C  0.49354915  0.82615554  0.13647477    -0.13800
C1121       C  0.49992009  0.81252798  0.15913596     0.25000
C1122       C  0.48754589  0.81814656  0.18199418    -0.19200
C1123       C  0.49410450  0.80513205  0.20418343    -0.07700
C1124       C  0.51306453  0.78637551  0.20359949    -0.03700
C1125       C  0.52569998  0.78120361  0.18062571    -0.09000
C1126       C  0.51913879  0.79423065  0.15850395    -0.16700
H1127       H  0.50109926  0.86296485  0.03478857     0.11500
H1128       H  0.50236337  0.83111468  0.06904363     0.10700
H1129       H  0.47004824  0.88554687  0.12101168     0.10700
H1130       H  0.46884825  0.91744258  0.08714996     0.11200
H1131       H  0.47271708  0.83241276  0.18260759     0.11300
H1132       H  0.48382216  0.80908954  0.22156826     0.11200
H1133       H  0.54040568  0.76682940  0.17976215     0.11400
H1134       H  0.52895320  0.78996159  0.14091033     0.10200
C1135       C  0.50748990  0.06068487  0.06476005    -0.03600
C1136       C  0.51548407  0.05228336  0.08890899    -0.09400
C1137       C  0.52141148  0.06981771  0.10797601    -0.17000
C1138       C  0.51941331  0.09589691  0.10314708     0.25100
C1139       C  0.51146485  0.10443359  0.07925062    -0.18700
C1140       C  0.50561999  0.08697330  0.06013562    -0.07600
C1141       C  0.52480645  0.11404297  0.12279611    -0.14000
C1142       C  0.52768270  0.13036728  0.13855954    -0.13800
C1143       C  0.52838222  0.15102600  0.15635283     0.25000
C1144       C  0.51146951  0.17125302  0.15322942    -0.19200
C1145       C  0.51077548  0.19086114  0.17101234    -0.07700
C1146       C  0.52705811  0.19053798  0.19220768    -0.03700
C1147       C  0.54439898  0.17036521  0.19498570    -0.09000
C1148       C  0.54504571  0.15067905  0.17710140    -0.16700
H1149       H  0.51734807  0.03218488  0.09303468     0.11500
H1150       H  0.52748256  0.06304603  0.12646235     0.10700
H1151       H  0.50971622  0.12461121  0.07541023     0.10700
H1152       H  0.49950708  0.09407631  0.04180207     0.11200
H1153       H  0.49842525  0.17160957  0.13728554     0.11300
H1154       H  0.49689124  0.20585638  0.16860213     0.11200
H1155       H  0.55726921  0.16974780  0.21104259     0.11400
H1156       H  0.55823109  0.13507174  0.17963633     0.10200
C1157       C  0.40765069  0.97969591  0.06702384    -0.03600
C1158       C  0.41398130  0.97972050  0.09304493    -0.09400
C1159       C  0.39489603  0.97793266  0.11168295    -0.17000
C1160       C  0.36922476  0.97598312  0.10463240     0.25100
C1161       C  0.36281564  0.97591615  0.07883646    -0.18700
C1162       C  0.38174762  0.97777845  0.06025572    -0.07600
C1163       C  0.34936688  0.97392301  0.12364828    -0.14000
C1164       C  0.33250636  0.97208696  0.13924968    -0.13800
C1165       C  0.31303222  0.96981857  0.15862200     0.25000
C1166       C  0.29634765  0.99004820  0.16351731    -0.19200
C1167       C  0.27956089  0.98894072  0.18423379    -0.07700
C1168       C  0.27935222  0.96761967  0.20032565    -0.03700
C1169       C  0.29516938  0.94687188  0.19452949    -0.09000
C1170       C  0.31181192  0.94793304  0.17378716    -0.16700
H1171       H  0.43363044  0.98111778  0.09899951     0.11500
H1172       H  0.40017929  0.97799695  0.13158804     0.10700
H1173       H  0.34311525  0.97435505  0.07302914     0.10700
H1174       H  0.37599351  0.97749067  0.04049167     0.11200
H1175       H  0.29710240  0.00713644  0.15202378     0.11300
H1176       H  0.26807279  0.00541097  0.18874979     0.11200
H1177       H  0.29573118  0.93048677  0.20702004     0.11400
H1178       H  0.32456097  0.93214864  0.17030689     0.10200
C1179       C  0.70742302  0.98058274  0.76281499    -0.03600
C1180       C  0.68332207  0.97216928  0.75474448    -0.09400
C1181       C  0.66351139  0.96868865  0.77219822    -0.17000
C1182       C  0.66738444  0.97357506  0.79807942     0.25100
C1183       C  0.69170473  0.98082181  0.80645466    -0.18700
C1184       C  0.71160235  0.98433632  0.78893314    -0.07600
C1185       C  0.64607981  0.97266693  0.81563416    -0.14000
C1186       C  0.62830600  0.97283964  0.83034575    -0.13800
C1187       C  0.60810615  0.97372550  0.84915049     0.25000
C1188       C  0.58243951  0.97551904  0.84198555    -0.19200
C1189       C  0.56321482  0.97679413  0.86056622    -0.07700
C1190       C  0.56938861  0.97629854  0.88663524    -0.03700
C1191       C  0.59527400  0.97446384  0.89348048    -0.09000
C1192       C  0.61431932  0.97319471  0.87498448    -0.16700
H1193       H  0.67942908  0.96981069  0.73465699     0.11500
H1194       H  0.64487885  0.96320320  0.76533605     0.10700
H1195       H  0.69501368  0.98479785  0.82638894     0.10700
H1196       H  0.72971550  0.99155735  0.79555730     0.11200
H1197       H  0.57727899  0.97600421  0.82205528     0.11300
H1198       H  0.54359248  0.97817938  0.85453200     0.11200
H1199       H  0.60097368  0.97401883  0.91325590     0.11400
H1200       H  0.63400155  0.97187242  0.88089957     0.10200
C1201       C  0.25999943  0.98386660  0.77643185    -0.03600
C1202       C  0.26414298  0.96401717  0.79387449    -0.09400
C1203       C  0.28095810  0.96723738  0.81429203    -0.17000
C1204       C  0.29399386  0.99028059  0.81747175     0.25100
C1205       C  0.28866609  0.01068908  0.80116353    -0.18700
C1206       C  0.27172958  0.00751518  0.78080884    -0.07600
C1207       C  0.31454991  0.99199174  0.83569396    -0.14000
C1208       C  0.33257566  0.99206559  0.85000184    -0.13800
C1209       C  0.35429984  0.99103974  0.86684366     0.25000
C1210       C  0.35089046  0.98534467  0.89260429    -0.19200
C1211       C  0.37181478  0.98414327  0.90897016    -0.07700
C1212       C  0.39662452  0.98854561  0.89983817    -0.03700
C1213       C  0.39993414  0.99395716  0.87383922    -0.09000
C1214       C  0.37890813  0.99525753  0.85750062    -0.16700
H1215       H  0.25615384  0.94534366  0.79036277     0.11500
H1216       H  0.28500864  0.95122747  0.82662033     0.10700
H1217       H  0.29874952  0.02855424  0.80322116     0.10700
H1218       H  0.26968276  0.02274151  0.76707705     0.11200
H1219       H  0.33202397  0.98181343  0.90007078     0.11300
H1220       H  0.36851775  0.97963349  0.92879090     0.11200
H1221       H  0.41872068  0.99739184  0.86615942     0.11400
H1222       H  0.38185566  0.99954354  0.83757189     0.10200
C1223       C  0.50499066  0.08657788  0.41709785    -0.03600
C1224       C  0.49657853  0.08149686  0.39221402    -0.09400
C1225       C  0.49689479  0.10072522  0.37367312    -0.17000
C1226       C  0.50579882  0.12516749  0.37972274     0.25100
C1227       C  0.51421885  0.13028448  0.40440327    -0.18700
C1228       C  0.51375100  0.11124306  0.42293280    -0.07600
C1229       C  0.50679298  0.14500965  0.36070466    -0.14000
C1230       C  0.50840140  0.16180649  0.34505499    -0.13800
C1231       C  0.51097339  0.18101624  0.32553708     0.25000
C1232       C  0.53517213  0.18838608  0.31716527    -0.19200
C1233       C  0.53776400  0.20412718  0.29583389    -0.07700
C1234       C  0.51617587  0.21290054  0.28279873    -0.03700
C1235       C  0.49195834  0.20676491  0.29220152    -0.09000
C1236       C  0.48937371  0.19086417  0.31344487    -0.16700
H1237       H  0.48962871  0.06277084  0.38715129     0.11500
H1238       H  0.49031513  0.09649919  0.35461979     0.10700
H1239       H  0.52126832  0.14902203  0.40933328     0.10700
H1240       H  0.52059771  0.11580153  0.44181233     0.11200
H1241       H  0.55204262  0.18090091  0.32629253     0.11300
H1242       H  0.55658754  0.20813594  0.28850967     0.11200
H1243       H  0.47510195  0.21272571  0.28199803     0.11400
H1244       H  0.47055219  0.18524679  0.31964186     0.10200
C1245       C  0.52484243  0.77771033  0.29710790    -0.03600
C1246       C  0.54480123  0.79511463  0.30122343    -0.09400
C1247       C  0.54389719  0.81252563  0.32142966    -0.17000
C1248       C  0.52293501  0.81303773  0.33788209     0.25100
C1249       C  0.50362857  0.79478731  0.33472282    -0.18700
C1250       C  0.50458984  0.77722154  0.31452868    -0.07600
C1251       C  0.52049789  0.83329447  0.35671162    -0.14000
C1252       C  0.51827643  0.85088542  0.37162395    -0.13800
C1253       C  0.51557049  0.87211007  0.38933444     0.25000
C1254       C  0.51794389  0.89737920  0.38094159    -0.19200
C1255       C  0.51570316  0.91778517  0.39813246    -0.07700
C1256       C  0.51115188  0.91337723  0.42418493    -0.03700
C1257       C  0.50857744  0.88791135  0.43236842    -0.09000
C1258       C  0.51070123  0.86758202  0.41514956    -0.16700
H1259       H  0.56044604  0.79616486  0.28787843     0.11500
H1260       H  0.55903963  0.82635578  0.32349924     0.10700
H1261       H  0.48726118  0.79484057  0.34720151     0.10700
H1262       H  0.48871523  0.76443908  0.31151824     0.11200
H1263       H  0.52170120  0.90134589  0.36108396     0.11300
H1264       H  0.51794233  0.93700837  0.39106514     0.11200
H1265       H  0.50498018  0.88361888  0.45217969     0.11400
H1266       H  0.50870749  0.84826277  0.42205981     0.10200
C1267       C  0.50795984  0.23733668  0.70242274    -0.03600
C1268       C  0.53123479  0.22442542  0.70016625    -0.09400
C1269       C  0.53487236  0.20631890  0.68092065    -0.17000
C1270       C  0.51531405  0.20095078  0.66361636     0.25100
C1271       C  0.49298539  0.21546192  0.66435973    -0.18700
C1272       C  0.48930597  0.23349018  0.68365572    -0.07600
C1273       C  0.51687218  0.17886204  0.64713720    -0.14000
C1274       C  0.51685958  0.15981767  0.63410849    -0.13800
C1275       C  0.51584909  0.13759592  0.61774559     0.25000
C1276       C  0.51356582  0.11293048  0.62782218    -0.19200
C1277       C  0.51211729  0.09168561  0.61157981    -0.07700
C1278       C  0.51282990  0.09481988  0.58497056    -0.03700
C1279       C  0.51511632  0.11973508  0.57519958    -0.01200
C1280       C  0.51663237  0.14078699  0.59137997    -0.16700
H1281       H  0.54552886  0.22636601  0.71486646     0.11500
H1282       H  0.55223033  0.19526710  0.68067238     0.10700
H1283       H  0.47765921  0.21156013  0.65116134     0.10700
H1284       H  0.47090162  0.24252081  0.68545147     0.11200
H1285       H  0.51284469  0.11011299  0.64821186     0.11300
H1286       H  0.51038287  0.07288850  0.61983147     0.11200
H1287       H  0.51583758  0.12309373  0.55490375     0.11400
H1288       H  0.51834020  0.15965500  0.58324601     0.10200
C1289       C  0.51986104  0.92123783  0.59268408    -0.03600
C1290       C  0.51907293  0.89527523  0.58589094    -0.09400
C1291       C  0.52151897  0.87616283  0.60427834    -0.17000
C1292       C  0.52483223  0.88240230  0.62992503     0.25100
C1293       C  0.52553820  0.90815664  0.63701010    -0.18700
C1294       C  0.52308332  0.92741840  0.61856409    -0.07600
C1295       C  0.52698042  0.86216184  0.64867003    -0.14000
C1296       C  0.52758317  0.84406867  0.66304429    -0.13800
C1297       C  0.52590810  0.82175192  0.67933324     0.25000
C1298       C  0.50961968  0.80171926  0.67264238    -0.19200
C1299       C  0.50482773  0.78183933  0.68977083    -0.07700
C1300       C  0.51631951  0.78153775  0.71391799    -0.03700
C1301       C  0.53407022  0.80070383  0.71983908    -0.09000
C1302       C  0.53879846  0.82069928  0.70268464    -0.16700
H1303       H  0.51656412  0.88959386  0.56626595     0.11500
H1304       H  0.52078236  0.85641099  0.59843578     0.10700
H1305       H  0.52795106  0.91337097  0.65678335     0.10700
H1306       H  0.52372072  0.94710680  0.62456979     0.11200
H1307       H  0.49945484  0.80219946  0.65473427     0.11300
H1308       H  0.49050073  0.76780534  0.68502980     0.11200
H1309       H  0.54252522  0.80144469  0.73860396     0.11400
H1310       H  0.55141198  0.83602451  0.70823903     0.10200
C1311       C  0.42043095  0.99595935  0.42472636    -0.03600
C1312       C  0.39477237  0.99673468  0.43223396    -0.09400
C1313       C  0.37547190  0.99409255  0.41419847    -0.17000
C1314       C  0.38165033  0.99061387  0.38858338     0.25100
C1315       C  0.40704173  0.98968149  0.38096516    -0.18700
C1316       C  0.42633390  0.99233464  0.39888412    -0.07600
C1317       C  0.36208748  0.98804977  0.36988964    -0.14000
C1318       C  0.34667327  0.98580259  0.35321923    -0.13800
C1319       C  0.32905522  0.98299766  0.33270157     0.25000
C1320       C  0.33215834  0.99738809  0.31054339    -0.19200
C1321       C  0.31506432  0.99456559  0.29046420    -0.07700
C1322       C  0.29468237  0.97737938  0.29247504    -0.03700
C1323       C  0.29173893  0.96298311  0.31478052    -0.09000
C1324       C  0.30893622  0.96572631  0.33478124    -0.16700
H1325       H  0.38959593  0.99941404  0.45197433     0.11500
H1326       H  0.35579104  0.99478904  0.42020334     0.10700
H1327       H  0.41193314  0.98693094  0.36114423     0.10700
H1328       H  0.44585708  0.99149255  0.39243887     0.11200
H1329       H  0.34773953  0.01078074  0.30881477     0.11300
H1330       H  0.31754236  0.00600266  0.27350607     0.11200
H1331       H  0.27630085  0.94945489  0.31658786     0.11400
H1332       H  0.30655125  0.95441046  0.35183997     0.10200
C1333       C  0.59593690  0.03451923  0.58109461    -0.03600
C1334       C  0.58855585  0.04392706  0.60507376    -0.09400
C1335       C  0.60566505  0.05768532  0.62001655    -0.17000
C1336       C  0.63026447  0.06237230  0.61115215     0.25100
C1337       C  0.63771249  0.05338509  0.58727550    -0.18700
C1338       C  0.62065960  0.03964720  0.57227852    -0.07600
C1339       C  0.64906108  0.07257553  0.62801184    -0.14000
C1340       C  0.66641109  0.07470821  0.64269372    -0.13800
C1341       C  0.68696562  0.06808957  0.65921134     0.25000
C1342       C  0.70511328  0.05103254  0.65006490    -0.19200
C1343       C  0.72083474  0.03813793  0.66693672    -0.07700
C1344       C  0.71868393  0.04223419  0.69327604    -0.03700
C1345       C  0.70185502  0.06100165  0.70217452    -0.09000
C1346       C  0.68588189  0.07375574  0.68517684    -0.16700
H1347       H  0.56953432  0.04078901  0.61228856     0.11500
H1348       H  0.59989755  0.06414841  0.63870257     0.10700
H1349       H  0.65691841  0.05647032  0.58050028     0.10700
H1350       H  0.62687437  0.03304510  0.55380585     0.11200
H1351       H  0.70570153  0.04611523  0.63005896     0.11300
H1352       H  0.73312140  0.02344248  0.65943013     0.11200
H1353       H  0.69997297  0.06465143  0.72234432     0.11400
H1354       H  0.67160564  0.08667000  0.69244864     0.10200
C1355       C  0.43172157  0.98887514  0.59267069    -0.03600
C1356       C  0.44028889  0.98015152  0.61649074    -0.09400
C1357       C  0.42332441  0.96865077  0.63339047    -0.17000
C1358       C  0.39783132  0.96575296  0.62649477     0.25100
C1359       C  0.38911475  0.97480135  0.60312993    -0.18700
C1360       C  0.40588282  0.98634278  0.58633854    -0.07600
C1361       C  0.37970132  0.95531628  0.64372356    -0.14000
C1362       C  0.36097211  0.95061475  0.65577452    -0.13800
C1363       C  0.33649999  0.95080438  0.66740704     0.25000
C1364       C  0.31833113  0.96791471  0.65828896    -0.19200
C1365       C  0.29538991  0.97084660  0.67106239    -0.07700
C1366       C  0.29042697  0.95666211  0.69313007    -0.03700
C1367       C  0.30831878  0.93861271  0.70148908    -0.09000
C1368       C  0.33135973  0.93575766  0.68867717    -0.16700
H1369       H  0.46014186  0.98152208  0.62175691     0.11500
H1370       H  0.43006158  0.96195078  0.65166600     0.10700
H1371       H  0.36927701  0.97293062  0.59787579     0.10700
H1372       H  0.39865242  0.99272295  0.56814243     0.11200
H1373       H  0.32233111  0.97974861  0.64188014     0.11300
H1374       H  0.28218525  0.98521469  0.66450814     0.11200
H1375       H  0.30482314  0.92739980  0.71841144     0.11400
H1376       H  0.34541858  0.92251451  0.69580996     0.10200
C1377       C  0.71618716  0.97399732  0.17940659    -0.03600
C1378       C  0.70541182  0.99680257  0.17062470    -0.09400
C1379       C  0.68907462  0.99677840  0.14956578    -0.17000
C1380       C  0.68318374  0.97394587  0.13711062     0.25100
C1381       C  0.69527004  0.95143027  0.14471729    -0.18700
C1382       C  0.71166154  0.95146070  0.16575133    -0.07600
C1383       C  0.66293256  0.97330915  0.11843714    -0.14000
C1384       C  0.64493385  0.97320208  0.10405769    -0.13800
C1385       C  0.62309476  0.97341859  0.08725891     0.25000
C1386       C  0.59875662  0.97880310  0.09670487    -0.19200
C1387       C  0.57766418  0.97906097  0.08035568    -0.07700
C1388       C  0.58059540  0.97398634  0.05422885    -0.03700
C1389       C  0.60517752  0.96872809  0.04495395    -0.09000
C1390       C  0.62616338  0.96839228  0.06132232    -0.16700
H1391       H  0.70797339  0.01422756  0.18131047     0.11500
H1392       H  0.67982392  0.01431487  0.14398738     0.10700
H1393       H  0.69086252  0.93359509  0.13538073     0.10700
H1394       H  0.71911874  0.93354392  0.17265849     0.11200
H1395       H  0.59607485  0.98285043  0.11671686     0.11300
H1396       H  0.55913007  0.98344165  0.08813765     0.11200
H1397       H  0.60825477  0.96477026  0.02499138     0.11400
H1398       H  0.64482754  0.96424202  0.05370106     0.10200
C1399       C  0.69133937  0.96004187  0.26902939    -0.03600
C1400       C  0.67034181  0.97642933  0.26990392    -0.09400
C1401       C  0.65417361  0.97608431  0.29087677    -0.17000
C1402       C  0.65879077  0.95929135  0.31098402     0.25100
C1403       C  0.67857432  0.94164622  0.30942673    -0.18700
C1404       C  0.69480210  0.94198472  0.28845904    -0.07600
C1405       C  0.64491461  0.96235929  0.33413565    -0.14000
C1406       C  0.63319299  0.96811599  0.35282934    -0.13800
C1407       C  0.61783709  0.97700946  0.37340384     0.25000
C1408       C  0.62882890  0.98425965  0.39654453    -0.19200
C1409       C  0.61340088  0.99241646  0.41659817    -0.07700
C1410       C  0.58688248  0.99348087  0.41351675    -0.03700
C1411       C  0.57626326  0.98703542  0.38975035    -0.09000
C1412       C  0.59164234  0.97881750  0.36991891    -0.16700
H1413       H  0.66743593  0.99060026  0.25523570     0.11500
H1414       H  0.63887955  0.98982076  0.29202868     0.10700
H1415       H  0.68219827  0.92853283  0.32490412     0.10700
H1416       H  0.71076122  0.92899874  0.28794708     0.11200
H1417       H  0.64921766  0.98323251  0.39919850     0.11300
H1418       H  0.62213362  0.99730258  0.43458864     0.11200
H1419       H  0.55593382  0.98756839  0.38658461     0.11400
H1420       H  0.58304079  0.97352884  0.35194984     0.10200
C1421       C  0.29619303  0.78585138  0.50230541    -0.03600
C1422       C  0.30309342  0.79324465  0.52705719    -0.09400
C1423       C  0.32337490  0.81026707  0.53095521    -0.17000
C1424       C  0.33713526  0.81990530  0.51018376     0.25100
C1425       C  0.33094069  0.81172775  0.48560984    -0.18700
C1426       C  0.31061347  0.79496540  0.48169156    -0.07600
C1427       C  0.35661589  0.83919477  0.51363202    -0.14000
C1428       C  0.37232610  0.85607056  0.51490283    -0.13800
C1429       C  0.39075497  0.87666411  0.51496441     0.25000
C1430       C  0.38281530  0.90193621  0.51188163    -0.19200
C1431       C  0.40068175  0.92177746  0.51090211    -0.07700
C1432       C  0.42691121  0.91669569  0.51290672    -0.03700
C1433       C  0.43465159  0.89123686  0.51622945    -0.09000
C1434       C  0.41675691  0.87146454  0.51725854    -0.16700
H1435       H  0.29204046  0.78684711  0.54321118     0.11500
H1436       H  0.32783787  0.81646035  0.55008160     0.10700
H1437       H  0.34133575  0.81893891  0.46934749     0.10700
H1438       H  0.30560645  0.78967568  0.46242679     0.11200
H1439       H  0.36278861  0.90630552  0.50999120     0.11300
H1440       H  0.39393400  0.94105424  0.50829257     0.11200
H1441       H  0.45460042  0.88650993  0.51792503     0.11400
H1442       H  0.42325906  0.85205993  0.51960715     0.10200
C1443       C  0.59636714  0.91925622  0.50363928    -0.03600
C1444       C  0.62259050  0.92353762  0.50710500    -0.09400
C1445       C  0.63974924  0.90296086  0.50774318    -0.17000
C1446       C  0.63099389  0.87784127  0.50478837     0.25100
C1447       C  0.60509301  0.87359129  0.50070880    -0.18700
C1448       C  0.58802276  0.89395072  0.50014608    -0.07600
C1449       C  0.64805490  0.85618333  0.50675628    -0.14000
C1450       C  0.66123665  0.83737127  0.50909829    -0.13800
C1451       C  0.67732968  0.81524400  0.51299582     0.25000
C1452       C  0.67589899  0.80139831  0.53575918    -0.19200
C1453       C  0.69403711  0.78265685  0.54130393    -0.07700
C1454       C  0.71380311  0.77734566  0.52408569    -0.03700
C1455       C  0.71389559  0.78980593  0.50043852    -0.09000
C1456       C  0.69585089  0.80869048  0.49498085    -0.16700
H1457       H  0.62976507  0.94266437  0.50978043     0.11500
H1458       H  0.65976688  0.90662736  0.51088147     0.10700
H1459       H  0.59795674  0.85439605  0.49829654     0.10700
H1460       H  0.56810514  0.88971329  0.49714368     0.11200
H1461       H  0.66167951  0.80610166  0.54987979     0.11300
H1462       H  0.69384990  0.77371348  0.55986335     0.11200
H1463       H  0.72927411  0.78658268  0.48714598     0.11400
H1464       H  0.69724645  0.81915462  0.47729080     0.10200
C1465       C  0.59007927  0.09467276  0.49797855    -0.03600
C1466       C  0.58014679  0.11949397  0.49538106    -0.09400
C1467       C  0.59604988  0.14085242  0.49572274    -0.17000
C1468       C  0.62230585  0.13806402  0.49867501     0.25100
C1469       C  0.63253074  0.11347408  0.50097836    -0.18700
C1470       C  0.61657452  0.09193510  0.50061081    -0.07600
C1471       C  0.63845418  0.16052005  0.49981280    -0.14000
C1472       C  0.65173103  0.17940140  0.50119276    -0.13800
C1473       C  0.66879716  0.20108542  0.50342014     0.25000
C1474       C  0.67479302  0.21107979  0.52741023    -0.19200
C1475       C  0.69456018  0.22885796  0.53011373    -0.07700
C1476       C  0.70864164  0.23698140  0.50886094    -0.03700
C1477       C  0.70111141  0.22846225  0.48463237    -0.09000
C1478       C  0.68138289  0.21064560  0.48193750    -0.16700
H1479       H  0.55991374  0.12255062  0.49322649     0.11500
H1480       H  0.58776916  0.15962643  0.49389409     0.10700
H1481       H  0.65282333  0.11094942  0.50330713     0.10700
H1482       H  0.62491678  0.07324268  0.50279106     0.11200
H1483       H  0.66536207  0.20387050  0.54424771     0.11300
H1484       H  0.70055952  0.23425413  0.54906255     0.11200
H1485       H  0.71224423  0.23354904  0.46806709     0.11400
H1486       H  0.67712081  0.20309371  0.46325512     0.10200
C1487       C  0.28598436  0.21447687  0.51258041    -0.03600
C1488       C  0.29033330  0.19883935  0.53383882    -0.09400
C1489       C  0.31183864  0.18311042  0.53503673    -0.17000
C1490       C  0.32930435  0.18257065  0.51490162     0.25100
C1491       C  0.32549595  0.19878811  0.49401386    -0.18700
C1492       C  0.30396436  0.21456613  0.49282305    -0.07600
C1493       C  0.35001729  0.16421277  0.51492062    -0.14000
C1494       C  0.36651729  0.14803984  0.51442599    -0.13800
C1495       C  0.38570710  0.12812708  0.51318147     0.25000
C1496       C  0.41159954  0.13434165  0.51227388    -0.19200
C1497       C  0.43004863  0.11515112  0.51043312    -0.07700
C1498       C  0.42303647  0.08921582  0.50949444    -0.03700
C1499       C  0.39696777  0.08315374  0.51060903    -0.09000
C1500       C  0.37853525  0.10241048  0.51240440    -0.16700
H1501       H  0.27631818  0.19777904  0.54888400     0.11500
H1502       H  0.31428205  0.17060450  0.55122724     0.10700
H1503       H  0.33863011  0.19849509  0.47816410     0.10700
H1504       H  0.30058379  0.22572914  0.47584557     0.11200
H1505       H  0.41756974  0.15406695  0.51287037     0.11300
H1506       H  0.44986137  0.12070480  0.50977036     0.11200
H1507       H  0.39076367  0.06351867  0.50998524     0.11400
H1508       H  0.35862124  0.09720716  0.51307293     0.10200
C1509       C  0.78610754  0.97984447  0.70537361    -0.03600
C1510       C  0.80879626  0.99400296  0.70395157    -0.09400
C1511       C  0.82659118  0.98932110  0.68467664    -0.17000
C1512       C  0.82210587  0.97034974  0.66648710     0.25100
C1513       C  0.80046836  0.95487889  0.66895861    -0.18700
C1514       C  0.78263281  0.95954317  0.68830787    -0.07600
C1515       C  0.83868950  0.96821992  0.64443473    -0.14000
C1516       C  0.85274575  0.96809288  0.62608776    -0.13800
C1517       C  0.87055709  0.96937451  0.60493119     0.25000
C1518       C  0.86327511  0.96244680  0.58017954    -0.19200
C1519       C  0.88066512  0.96423084  0.55990109    -0.07700
C1520       C  0.90572994  0.97283712  0.56406408    -0.03700
C1521       C  0.91279101  0.97963807  0.58900242    -0.09000
C1522       C  0.89539666  0.97801462  0.60912234    -0.16700
H1523       H  0.81161785  0.01021042  0.71635583     0.11500
H1524       H  0.84314657  0.00149723  0.68311165     0.10700
H1525       H  0.79663573  0.94014532  0.65508454     0.10700
H1526       H  0.76500480  0.94887768  0.68842537     0.11200
H1527       H  0.84415680  0.95570450  0.57652716     0.11300
H1528       H  0.87457548  0.95863601  0.54104521     0.11200
H1529       H  0.93180470  0.98645464  0.59299558     0.11400
H1530       H  0.90137498  0.98356056  0.62803825     0.10200
C1531       C  0.07480895  0.97984201  0.56216632    -0.03600
C1532       C  0.06703320  0.98257491  0.58771210    -0.09400
C1533       C  0.08482200  0.98347159  0.60753201    -0.17000
C1534       C  0.11085522  0.98159934  0.60244074     0.25100
C1535       C  0.11887655  0.97857646  0.57714252    -0.18700
C1536       C  0.10104475  0.97775395  0.55717437    -0.07600
C1537       C  0.12908972  0.98306995  0.62322895    -0.14000
C1538       C  0.14385683  0.98441116  0.64096615    -0.13800
C1539       C  0.16198138  0.98558658  0.66185691     0.25000
C1540       C  0.16151871  0.96724868  0.68128469    -0.19200
C1541       C  0.18077451  0.96662214  0.69980357    -0.07700
C1542       C  0.20076992  0.98433894  0.69916644    -0.03700
C1543       C  0.20042953  0.00347247  0.68044290    -0.09000
C1544       C  0.18115437  0.00414781  0.66201458    -0.16700
H1545       H  0.04709474  0.98428055  0.59248553     0.11500
H1546       H  0.07821184  0.98578023  0.62689958     0.10700
H1547       H  0.13893579  0.97699973  0.57281224     0.10700
H1548       H  0.10780162  0.97550150  0.53786813     0.11200
H1549       H  0.14691084  0.95271278  0.68146001     0.11300
H1550       H  0.18103083  0.95125441  0.71352490     0.11200
H1551       H  0.21600401  0.01691223  0.67913610     0.11400
H1552       H  0.18189064  0.01844915  0.64719456     0.10200
C1553       C  0.07135309  0.98249233  0.38829209    -0.03600
C1554       C  0.09771284  0.98322259  0.39293863    -0.09400
C1555       C  0.11508347  0.98260623  0.37268572    -0.17000
C1556       C  0.10644718  0.98126767  0.34748090     0.25100
C1557       C  0.08030317  0.98090305  0.34268330    -0.18700
C1558       C  0.06293624  0.98154764  0.36283068    -0.07600
C1559       C  0.12435554  0.97999766  0.32659470    -0.14000
C1560       C  0.13996984  0.97885866  0.30971053    -0.13800
C1561       C  0.16037951  0.97777680  0.29126387     0.25000
C1562       C  0.16927113  0.95426490  0.28233064    -0.19200
C1563       C  0.19181485  0.95296979  0.26813147    -0.07700
C1564       C  0.20562795  0.97519266  0.26265151    -0.03700
C1565       C  0.19575213  0.99881083  0.27026176    -0.09000
C1566       C  0.17324644  0.00009870  0.28440117    -0.16700
H1567       H  0.10493875  0.98402546  0.41219813     0.11500
H1568       H  0.13527370  0.98297360  0.37670796     0.10700
H1569       H  0.07329725  0.97993201  0.32333638     0.10700
H1570       H  0.04285102  0.98103663  0.35838218     0.11200
H1571       H  0.15962264  0.93682089  0.28759036     0.11300
H1572       H  0.19946060  0.93452664  0.26310027     0.11200
H1573       H  0.20646418  0.01609194  0.26685070     0.11400
H1574       H  0.16672665  0.01839283  0.29125498     0.10200
C1575       C  0.78197243  0.97306825  0.25100211    -0.03600
C1576       C  0.79224936  0.95107938  0.26222557    -0.09400
C1577       C  0.81148626  0.95289504  0.28049861    -0.17000
C1578       C  0.82081411  0.97672986  0.28786103     0.25100
C1579       C  0.81193065  0.99865554  0.27547551    -0.18700
C1580       C  0.79254363  0.99684923  0.25717293    -0.07600
C1581       C  0.83786863  0.97859539  0.30941969    -0.14000
C1582       C  0.85157067  0.97924625  0.32792707    -0.13800
C1583       C  0.86887977  0.97946483  0.34935394     0.25000
C1584       C  0.89492906  0.98200775  0.34495020    -0.19200
C1585       C  0.91206180  0.98176640  0.36522478    -0.07700
C1586       C  0.90356702  0.97894703  0.39053092    -0.03700
C1587       C  0.87726657  0.97656073  0.39489945    -0.09000
C1588       C  0.86005439  0.97679151  0.37442281    -0.16700
H1589       H  0.78387681  0.93263929  0.25836479     0.11500
H1590       H  0.81807510  0.93578091  0.28989235     0.10700
H1591       H  0.81895040  0.01723817  0.28097567     0.10700
H1592       H  0.78441125  0.01410771  0.24941949     0.11200
H1593       H  0.90207664  0.98407691  0.32574015     0.11300
H1594       H  0.93208871  0.98374215  0.36092280     0.11200
H1595       H  0.87002068  0.97440686  0.41404448     0.11400
H1596       H  0.83990566  0.97478100  0.37813740     0.10200
C1597       C  0.07604662  0.89826638  0.45983184    -0.03600
C1598       C  0.07090374  0.87199577  0.46007377    -0.09400
C1599       C  0.08916179  0.85468058  0.45170500    -0.17000
C1600       C  0.11265883  0.86340667  0.44281577     0.25100
C1601       C  0.11801874  0.88944556  0.44256813    -0.18700
C1602       C  0.09984645  0.90680397  0.45100755    -0.07600
C1603       C  0.13227949  0.84555031  0.43680589    -0.14000
C1604       C  0.14945304  0.83053246  0.43665204    -0.13800
C1605       C  0.16922969  0.81325878  0.44368782     0.25000
C1606       C  0.19333930  0.81449011  0.43246174    -0.19200
C1607       C  0.21342040  0.80029280  0.44267259    -0.07700
C1608       C  0.20940877  0.78492253  0.46420799    -0.03700
C1609       C  0.18492364  0.78350339  0.47484235    -0.09000
C1610       C  0.16502760  0.79746692  0.46459233    -0.16700
H1611       H  0.05279488  0.86480581  0.46673409     0.11500
H1612       H  0.08507618  0.83448362  0.45247326     0.10700
H1613       H  0.13635892  0.89630554  0.43615270     0.10700
H1614       H  0.10435399  0.92690114  0.45032214     0.11200
H1615       H  0.19678814  0.82699149  0.41644845     0.11300
H1616       H  0.23207367  0.80164054  0.43408740     0.11200
H1617       H  0.18132343  0.77238005  0.49180236     0.11400
H1618       H  0.14656515  0.79680400  0.47371402     0.10200
C1619       C  0.79312696  0.79362466  0.57003738    -0.03600
C1620       C  0.81541908  0.78631348  0.58297680    -0.09400
C1621       C  0.83482241  0.80398871  0.58729508    -0.17000
C1622       C  0.83174251  0.82922015  0.57947387     0.25100
C1623       C  0.80839914  0.83730336  0.56978672    -0.18700
C1624       C  0.78925387  0.81965853  0.56494228    -0.07600
C1625       C  0.85355051  0.84479811  0.57461863    -0.14000
C1626       C  0.86932948  0.85695009  0.56338852    -0.13800
C1627       C  0.88401440  0.87028589  0.54465631     0.25000
C1628       C  0.87298424  0.89068471  0.53167649    -0.19200
C1629       C  0.88640046  0.90314221  0.51248510    -0.07700
C1630       C  0.91118802  0.89543272  0.50601744    -0.03700
C1631       C  0.92169490  0.87414093  0.51848323    -0.09000
C1632       C  0.90815284  0.86165106  0.53768118    -0.16700
H1633       H  0.81874716  0.76660219  0.58789994     0.11500
H1634       H  0.85290854  0.79751693  0.59470133     0.10700
H1635       H  0.80594362  0.85675840  0.56339882     0.10700
H1636       H  0.77264279  0.82622972  0.55477280     0.11200
H1637       H  0.85405678  0.89714555  0.53657204     0.11300
H1638       H  0.87774059  0.91952482  0.50351165     0.11200
H1639       H  0.94083382  0.86786333  0.51430733     0.11400
H1640       H  0.91662791  0.84550867  0.54727825     0.10200
C1641       C  0.79532751  0.20479005  0.51628217    -0.03600
C1642       C  0.78878845  0.18227936  0.52917763    -0.09400
C1643       C  0.80261998  0.16010009  0.52511655    -0.17000
C1644       C  0.82312936  0.16034041  0.50830461     0.25100
C1645       C  0.83043788  0.18286013  0.49617746    -0.18700
C1646       C  0.81658698  0.20505806  0.50015154    -0.07600
C1647       C  0.83656034  0.13741401  0.50318365    -0.14000
C1648       C  0.84909712  0.11904426  0.49847524    -0.13800
C1649       C  0.86655921  0.09919914  0.49277899     0.25000
C1650       C  0.89156913  0.10570337  0.48692022    -0.19200
C1651       C  0.90927655  0.08675221  0.48224844    -0.07700
C1652       C  0.90216871  0.06097642  0.48346888    -0.03700
C1653       C  0.87677408  0.05457023  0.48892352    -0.09000
C1654       C  0.85900595  0.07370234  0.49360414    -0.16700
H1655       H  0.77260009  0.18172436  0.54187916     0.11500
H1656       H  0.79705716  0.14270500  0.53469022     0.10700
H1657       H  0.84642732  0.18309888  0.48319687     0.10700
H1658       H  0.82176724  0.22207656  0.48974611     0.11200
H1659       H  0.89747115  0.12545866  0.48626880     0.11300
H1660       H  0.92863467  0.09237082  0.47805122     0.11200
H1661       H  0.87078358  0.03488694  0.49010960     0.11400
H1662       H  0.83956981  0.06864753  0.49818286     0.10200
C1663       C  0.19662852  0.19735584  0.48873515    -0.03600
C1664       C  0.17319771  0.19695033  0.50153595    -0.09400
C1665       C  0.15476076  0.17904015  0.49508498    -0.17000
C1666       C  0.15952270  0.16145157  0.47575574     0.25100
C1667       C  0.18267785  0.16182667  0.46272639    -0.18700
C1668       C  0.20120381  0.17971946  0.46919968    -0.07600
C1669       C  0.14102950  0.14226248  0.47036965    -0.14000
C1670       C  0.12528043  0.12588345  0.46823319    -0.13800
C1671       C  0.10657251  0.10615606  0.46846009     0.25000
C1672       C  0.11406505  0.08080629  0.46588819    -0.19200
C1673       C  0.09611771  0.06138998  0.46796440    -0.07700
C1674       C  0.07044516  0.06717253  0.47266094    -0.03700
C1675       C  0.06308855  0.09280428  0.47497036    -0.09000
C1676       C  0.08110618  0.11217493  0.47293203    -0.16700
H1677       H  0.16938550  0.21011383  0.51689965     0.11500
H1678       H  0.13694744  0.17865858  0.50541699     0.10700
H1679       H  0.18650205  0.14814669  0.44781463     0.10700
H1680       H  0.21906469  0.17982441  0.45897515     0.11200
H1681       H  0.13381956  0.07603732  0.46259956     0.11300
H1682       H  0.10237956  0.04188568  0.46590300     0.11200
H1683       H  0.04348662  0.09791400  0.47856543     0.11400
H1684       H  0.07524428  0.13180177  0.47516871     0.10200
C1685       C  0.98093404  0.56991907  0.05495033    -0.03600
C1686       C  0.98004861  0.59550337  0.04687350    -0.09400
C1687       C  0.98060355  0.61546909  0.06457682    -0.17000
C1688       C  0.98199959  0.61032408  0.09068681     0.25100
C1689       C  0.98250352  0.58495861  0.09891720    -0.18700
C1690       C  0.98195499  0.56496000  0.08126692    -0.07600
C1691       C  0.98339864  0.63097675  0.10898425    -0.14000
C1692       C  0.98508906  0.64789425  0.12459918    -0.13800
C1693       C  0.98786330  0.66734239  0.14402853     0.25000
C1694       C  0.96644050  0.67783117  0.15597833    -0.19200
C1695       C  0.96929083  0.69486388  0.17638396    -0.07700
C1696       C  0.99362094  0.70150023  0.18520490    -0.03700
C1697       C  0.01500189  0.69167379  0.17250664    -0.09000
C1698       C  0.01214542  0.67483744  0.15204740    -0.16700
H1699       H  0.97924297  0.60016372  0.02683529     0.11500
H1700       H  0.98018358  0.63494977  0.05785718     0.10700
H1701       H  0.98356071  0.58060333  0.11902174     0.10700
H1702       H  0.98261595  0.54560087  0.08827491     0.11200
H1703       H  0.94752998  0.67215573  0.15011972     0.11300
H1704       H  0.95255062  0.70163601  0.18624064     0.11200
H1705       H  0.03394858  0.69613863  0.17923888     0.11400
H1706       H  0.02891330  0.66692759  0.14310997     0.10200
C1707       C  0.98271141  0.77412373  0.24931451    -0.03600
C1708       C  0.99997912  0.79453685  0.24848528    -0.09400
C1709       C  0.99778380  0.81488553  0.26565087    -0.17000
C1710       C  0.97832714  0.81503746  0.28390359     0.25100
C1711       C  0.96005315  0.79564290  0.28359020    -0.18700
C1712       C  0.96219802  0.77538382  0.26642876    -0.07600
C1713       C  0.97842835  0.83346487  0.30443986    -0.14000
C1714       C  0.97894367  0.84765689  0.32260901    -0.13800
C1715       C  0.98010064  0.86442058  0.34449169     0.25000
C1716       C  0.98068728  0.89077165  0.34096045    -0.19200
C1717       C  0.98254515  0.90710337  0.36186521    -0.07700
C1718       C  0.98388089  0.89747582  0.38691377    -0.03700
C1719       C  0.98296317  0.87092756  0.39036016    -0.09000
C1720       C  0.98110633  0.85455455  0.36929497    -0.16700
H1721       H  0.01647915  0.79355946  0.23621975     0.11500
H1722       H  0.01217168  0.82964517  0.26571273     0.10700
H1723       H  0.94502032  0.79533651  0.29765888     0.10700
H1724       H  0.94923923  0.75944361  0.26817071     0.11200
H1725       H  0.97987185  0.89875309  0.32198007     0.11300
H1726       H  0.98301097  0.92738399  0.35827283     0.11200
H1727       H  0.98380690  0.86281008  0.40926198     0.11400
H1728       H  0.98061772  0.83418087  0.37235360     0.10200
C1729       C  0.99201277  0.38929317  0.89507831    -0.03600
C1730       C  0.99217319  0.39327790  0.86859818    -0.09400
C1731       C  0.99220768  0.37257978  0.85174045    -0.17000
C1732       C  0.99203781  0.34754647  0.86099834     0.25100
C1733       C  0.99204904  0.34339900  0.88728364    -0.18700
C1734       C  0.99204249  0.36401513  0.90415710    -0.07600
C1735       C  0.99159639  0.32617264  0.84357174    -0.14000
C1736       C  0.99115510  0.30875163  0.82847723    -0.13800
C1737       C  0.99098982  0.28926211  0.80896741     0.25000
C1738       C  0.00699776  0.26798462  0.81072837    -0.19200
C1739       C  0.00960912  0.25132428  0.79000627    -0.07700
C1740       C  0.99617950  0.25573820  0.76733721    -0.03700
C1741       C  0.97884260  0.27607180  0.76641618    -0.09000
C1742       C  0.97631887  0.29271451  0.78702384    -0.16700
H1743       H  0.99216257  0.41237468  0.86087445     0.11500
H1744       H  0.99222977  0.37612216  0.83145046     0.10700
H1745       H  0.99192883  0.32419521  0.89477697     0.10700
H1746       H  0.99188092  0.36007500  0.92436463     0.11200
H1747       H  0.01855113  0.26509089  0.82752743     0.11300
H1748       H  0.02368090  0.23633280  0.79089498     0.11200
H1749       H  0.96891370  0.28035615  0.74888432     0.11400
H1750       H  0.96397628  0.30910321  0.78526191     0.10200
C1751       C  0.99046274  0.06130472  0.56444670    -0.03600
C1752       C  0.98906196  0.05287405  0.58988737    -0.09400
C1753       C  0.98974216  0.07018902  0.61008262    -0.17000
C1754       C  0.99187366  0.09629836  0.60537220     0.25100
C1755       C  0.99338819  0.10494022  0.58016646    -0.18700
C1756       C  0.99265550  0.08761413  0.55985345    -0.07600
C1757       C  0.99285941  0.11406526  0.62643377    -0.14000
C1758       C  0.99444223  0.12896595  0.64395052    -0.13800
C1759       C  0.99801718  0.14765664  0.66391133     0.25000
C1760       C  0.97732091  0.16109519  0.67406396    -0.19200
C1761       C  0.98140302  0.18143340  0.69095236    -0.07700
C1762       C  0.00625410  0.18862219  0.69771841    -0.03700
C1763       C  0.02674641  0.17410670  0.68857321    -0.09000
C1764       C  0.02265809  0.15379789  0.67187612    -0.16700
H1765       H  0.98737440  0.03281766  0.59429257     0.11500
H1766       H  0.98864033  0.06316325  0.62942029     0.10700
H1767       H  0.99517471  0.12508704  0.57619971     0.10700
H1768       H  0.99391173  0.09481421  0.54060376     0.11200
H1769       H  0.95813525  0.15659210  0.66808214     0.11300
H1770       H  0.96533162  0.19256278  0.69736169     0.11200
H1771       H  0.04607616  0.17939668  0.69332383     0.11400
H1772       H  0.03885338  0.14361799  0.66427975     0.10200
C1773       C  0.99426789  0.70304043  0.76608396    -0.03600
C1774       C  0.97553638  0.68489899  0.76019373    -0.09400
C1775       C  0.96970764  0.66532362  0.77746213    -0.17000
C1776       C  0.98253560  0.66365105  0.80081839     0.25100
C1777       C  0.00033071  0.68246989  0.80721631    -0.18700
C1778       C  0.00623270  0.70192094  0.78995400    -0.07600
C1779       C  0.97889830  0.64186820  0.81747506    -0.14000
C1780       C  0.97744804  0.62374009  0.83173404    -0.13800
C1781       C  0.97704647  0.60287707  0.84989859     0.25000
C1782       C  0.97942478  0.57746329  0.84197445    -0.19200
C1783       C  0.98029421  0.55758899  0.85993833    -0.07700
C1784       C  0.97887904  0.56284854  0.88617197    -0.03700
C1785       C  0.97600999  0.58845479  0.89376910    -0.09000
C1786       C  0.97515353  0.60815149  0.87588175    -0.16700
H1787       H  0.96663815  0.68492922  0.74162373     0.11500
H1788       H  0.95599537  0.65089359  0.77213293     0.10700
H1789       H  0.01049741  0.68147464  0.82510228     0.10700
H1790       H  0.02120715  0.71529309  0.79462060     0.11200
H1791       H  0.98092728  0.57302209  0.82192604     0.11300
H1792       H  0.98242202  0.53821332  0.85331152     0.11200
H1793       H  0.97469122  0.59345393  0.91369063     0.11400
H1794       H  0.97331797  0.62761218  0.88240696     0.10200
C1795       C  0.99484188  0.77555734  0.70173271    -0.03600
C1796       C  0.00806802  0.79866974  0.69905041    -0.09400
C1797       C  0.00193934  0.81562150  0.67948875    -0.17000
C1798       C  0.98254322  0.80975089  0.66222450     0.25100
C1799       C  0.96815532  0.78753250  0.66573492    -0.18700
C1800       C  0.97422891  0.77054452  0.68544451    -0.07600
C1801       C  0.97921733  0.82550782  0.63989396    -0.14000
C1802       C  0.97911991  0.83932505  0.62147104    -0.13800
C1803       C  0.98118891  0.85724595  0.60067163     0.25000
C1804       C  0.98497720  0.84895258  0.57559834    -0.19200
C1805       C  0.98805466  0.86667824  0.55581864    -0.07700
C1806       C  0.98750708  0.89297579  0.56089716    -0.03700
C1807       C  0.98368106  0.90097957  0.58621489    -0.09000
C1808       C  0.98055111  0.88331403  0.60581719    -0.16700
H1809       H  0.02434426  0.80271766  0.71100401     0.11500
H1810       H  0.01326348  0.83267681  0.67701124     0.10700
H1811       H  0.95314631  0.78268750  0.65248639     0.10700
H1812       H  0.96419314  0.75258198  0.68667587     0.11200
H1813       H  0.98566619  0.82880557  0.57134923     0.11300
H1814       H  0.99081037  0.85980714  0.53661789     0.11200
H1815       H  0.98295897  0.92099777  0.59099971     0.11400
H1816       H  0.97777626  0.89004169  0.62508756     0.10200
C1817       C  0.23510463  0.71126419  0.51487334    -0.03600
C1818       C  0.21684145  0.71177723  0.53439693    -0.09400
C1819       C  0.20069971  0.69090699  0.53845703    -0.17000
C1820       C  0.20258319  0.66924027  0.52303610     0.25100
C1821       C  0.22198567  0.66793750  0.50480838    -0.18700
C1822       C  0.23810620  0.68881773  0.50072277    -0.07600
C1823       C  0.18288527  0.64989892  0.52366048    -0.14000
C1824       C  0.16543757  0.63486024  0.52220078    -0.13800
C1825       C  0.14399688  0.61779219  0.51875446     0.25000
C1826       C  0.14795692  0.59188791  0.51400874    -0.19200
C1827       C  0.12726484  0.57560613  0.50969332    -0.07700
C1828       C  0.10210411  0.58492312  0.50990505    -0.03700
C1829       C  0.09832241  0.61096751  0.51489793    -0.09000
C1830       C  0.11907686  0.62721580  0.51924741    -0.16700
H1831       H  0.21350592  0.72918898  0.54488494     0.11500
H1832       H  0.18568573  0.69235896  0.55246912     0.10700
H1833       H  0.22357124  0.65144712  0.49257198     0.10700
H1834       H  0.25133599  0.68830894  0.48495963     0.11200
H1835       H  0.16706877  0.58425819  0.51352259     0.11300
H1836       H  0.13104177  0.55566760  0.50619813     0.11200
H1837       H  0.07931646  0.61879632  0.51561389     0.11400
H1838       H  0.11566733  0.64720166  0.52289724     0.10200
C1839       C  0.78456953  0.29835423  0.51863833    -0.03600
C1840       C  0.78457925  0.31495881  0.49767075    -0.09400
C1841       C  0.80199549  0.33530136  0.49646800    -0.17000
C1842       C  0.81955608  0.33931740  0.51621863     0.25100
C1843       C  0.81867848  0.32358227  0.53767879    -0.18700
C1844       C  0.80136415  0.30337492  0.53890159    -0.07600
C1845       C  0.83932235  0.35857498  0.51417578    -0.14000
C1846       C  0.85663129  0.37386299  0.51325775    -0.13800
C1847       C  0.87762809  0.39187009  0.51274287     0.25000
C1848       C  0.90283320  0.38325886  0.51199058    -0.19200
C1849       C  0.92310490  0.40065772  0.51169530    -0.07700
C1850       C  0.91858109  0.42709094  0.51212541    -0.03700
C1851       C  0.89316519  0.43553712  0.51293793    -0.09000
C1852       C  0.87294433  0.41810123  0.51324900    -0.16700
H1853       H  0.77231399  0.31122459  0.48156125     0.11500
H1854       H  0.80241620  0.34726949  0.47970520     0.10700
H1855       H  0.83204676  0.32632894  0.55311133     0.10700
H1856       H  0.80204567  0.29067737  0.55511851     0.11200
H1857       H  0.90685084  0.36305456  0.51163128     0.11300
H1858       H  0.94232543  0.39335951  0.51103410     0.11200
H1859       H  0.88883174  0.45566358  0.51327976     0.11400
H1860       H  0.85360912  0.42512065  0.51388308     0.10200
C1861       C  0.21892843  0.28497884  0.51389821    -0.03600
C1862       C  0.20866173  0.29107178  0.53780607    -0.09400
C1863       C  0.19270627  0.31227781  0.54070997    -0.17000
C1864       C  0.18670594  0.32761577  0.51971434     0.25100
C1865       C  0.19781197  0.32224730  0.49609471    -0.18700
C1866       C  0.21369168  0.30104254  0.49317941    -0.07600
C1867       C  0.16766524  0.34747417  0.52173010    -0.14000
C1868       C  0.15095241  0.36334651  0.52193035    -0.13800
C1869       C  0.13079369  0.38211010  0.52051924     0.25000
C1870       C  0.10521972  0.37454972  0.51929714    -0.19200
C1871       C  0.08583779  0.39270261  0.51642315    -0.07700
C1872       C  0.09176063  0.41875779  0.51460337    -0.03700
C1873       C  0.11753333  0.42612789  0.51636241    -0.09000
C1874       C  0.13678199  0.40801166  0.51926079    -0.16700
H1875       H  0.21159408  0.27843659  0.55380947     0.11500
H1876       H  0.18411256  0.31598370  0.55904788     0.10700
H1877       H  0.19321545  0.33373743  0.47962092     0.10700
H1878       H  0.22056499  0.29620732  0.47438680     0.11200
H1879       H  0.10026594  0.35456608  0.52024987     0.11300
H1880       H  0.06629796  0.38631511  0.51535089     0.11200
H1881       H  0.12297167  0.44597941  0.51534540     0.11400
H1882       H  0.15640131  0.41423259  0.52019788     0.10200
C1883       C  0.78820333  0.71553788  0.51837195    -0.03600
C1884       C  0.80553010  0.71993575  0.49850386    -0.09400
C1885       C  0.82491419  0.70239314  0.49332120    -0.17000
C1886       C  0.82733193  0.68027414  0.50801531     0.25100
C1887       C  0.80928960  0.67515839  0.52698161    -0.18700
C1888       C  0.78991721  0.69271482  0.53218597    -0.07600
C1889       C  0.84925065  0.66386036  0.50494922    -0.14000
C1890       C  0.86765056  0.65008439  0.50350277    -0.13800
C1891       C  0.88852299  0.63212677  0.50284308     0.25000
C1892       C  0.88313112  0.60611614  0.50243923    -0.19200
C1893       C  0.90277496  0.58831723  0.50286104    -0.07700
C1894       C  0.92845733  0.59604914  0.50373474    -0.03700
C1895       C  0.93386043  0.62231232  0.50373460    -0.09000
C1896       C  0.91398734  0.64022580  0.50333758    -0.16700
H1897       H  0.80514532  0.73778607  0.48821630     0.11500
H1898       H  0.83875227  0.70670303  0.47868940     0.10700
H1899       H  0.81093411  0.65821426  0.53860011     0.10700
H1900       H  0.77735305  0.68932988  0.54814567     0.11200
H1901       H  0.86361813  0.59951039  0.50204612     0.11300
H1902       H  0.89766867  0.56835795  0.50266120     0.11200
H1903       H  0.95332779  0.62898996  0.50430145     0.11400
H1904       H  0.91847239  0.66034028  0.50365609     0.10200
C1905       C  0.22105227  0.49710848  0.28487549    -0.03600
C1906       C  0.21265527  0.52079190  0.29397736    -0.09400
C1907       C  0.19568884  0.52214145  0.31451289    -0.17000
C1908       C  0.18685372  0.49981936  0.32618302     0.25100
C1909       C  0.19646185  0.47626885  0.31821346    -0.18700
C1910       C  0.21338075  0.47491389  0.29766391    -0.07600
C1911       C  0.16669437  0.50085554  0.34497609    -0.14000
C1912       C  0.14951453  0.50118487  0.36034213    -0.13800
C1913       C  0.12969440  0.50115257  0.37951945     0.25000
C1914       C  0.13635700  0.50111196  0.40526155    -0.19200
C1915       C  0.11756752  0.50097843  0.42407967    -0.07700
C1916       C  0.09156566  0.50090761  0.41759642    -0.03700
C1917       C  0.08495522  0.50088306  0.39161021    -0.09000
C1918       C  0.10388394  0.50099320  0.37274223    -0.16700
H1919       H  0.21760182  0.53807630  0.28389315     0.11500
H1920       H  0.18843385  0.54049945  0.32037934     0.10700
H1921       H  0.18981611  0.45883274  0.32697777     0.10700
H1922       H  0.21890278  0.45642564  0.29047104     0.11200
H1923       H  0.15617761  0.50120790  0.41084415     0.11300
H1924       H  0.12351512  0.50104660  0.44378471     0.11200
H1925       H  0.06519796  0.50088818  0.38584404     0.11400
H1926       H  0.09837765  0.50099265  0.35289534     0.10200
C1927       C  0.91999178  0.50793352  0.42536335    -0.03600
C1928       C  0.92458458  0.51105643  0.39915709    -0.09400
C1929       C  0.90433524  0.51208006  0.38179959    -0.17000
C1930       C  0.87915781  0.50987915  0.39027135     0.25100
C1931       C  0.87443606  0.50639473  0.41623667    -0.18700
C1932       C  0.89460428  0.50546450  0.43361786    -0.07600
C1933       C  0.85817512  0.51110332  0.37242132    -0.14000
C1934       C  0.84060667  0.51169507  0.35751163    -0.13800
C1935       C  0.82008656  0.51150469  0.33909053     0.25000
C1936       C  0.80963803  0.48833155  0.33098091    -0.19200
C1937       C  0.79157457  0.48778796  0.31137732    -0.07700
C1938       C  0.78364026  0.51043058  0.29964694    -0.03700
C1939       C  0.79343910  0.53370567  0.30848410    -0.09000
C1940       C  0.81146474  0.53425127  0.32814391    -0.16700
H1941       H  0.94380509  0.51301834  0.39207197     0.11500
H1942       H  0.90833254  0.51469568  0.36176518     0.10700
H1943       H  0.85511371  0.50450211  0.42310009     0.10700
H1944       H  0.89025545  0.50283595  0.45356802     0.11200
H1945       H  0.81622755  0.47057794  0.33909218     0.11300
H1946       H  0.78501824  0.46959891  0.30424790     0.11200
H1947       H  0.78826914  0.55131133  0.29911458     0.11400
H1948       H  0.81943916  0.55231938  0.33404978     0.10200
C1949       C  0.24290084  0.50176823  0.70399481    -0.03600
C1950       C  0.23518900  0.48049946  0.68968055    -0.09400
C1951       C  0.21715037  0.48298412  0.67024808    -0.17000
C1952       C  0.20647009  0.50676672  0.66478437     0.25100
C1953       C  0.21545786  0.52835053  0.67771432    -0.18700
C1954       C  0.23356254  0.52586696  0.69721629    -0.07600
C1955       C  0.18478213  0.50844436  0.64776118    -0.14000
C1956       C  0.16596360  0.50869861  0.63439780    -0.13800
C1957       C  0.14360300  0.50828155  0.61816975     0.25000
C1958       C  0.14618692  0.51239940  0.59203309    -0.19200
C1959       C  0.12491142  0.51154675  0.57608307    -0.07700
C1960       C  0.10040053  0.50662643  0.58587899    -0.03700
C1961       C  0.09786564  0.50267911  0.61223303    -0.09000
C1962       C  0.11932673  0.50341502  0.62821746    -0.16700
H1963       H  0.24150159  0.46163119  0.69503589     0.11500
H1964       H  0.21042135  0.46609413  0.66053903     0.10700
H1965       H  0.20737935  0.54688156  0.67378647     0.10700
H1966       H  0.23855541  0.54239429  0.70845552     0.11200
H1967       H  0.16472519  0.51620599  0.58390139     0.11300
H1968       H  0.12773611  0.51491676  0.55596688     0.11200
H1969       H  0.07939509  0.49878980  0.62043848     0.11400
H1970       H  0.11698504  0.50011068  0.64840863     0.10200
C1971       C  0.92598182  0.52215974  0.59311612    -0.03600
C1972       C  0.93106862  0.52017737  0.61934485    -0.09400
C1973       C  0.91152689  0.52330992  0.63736720    -0.17000
C1974       C  0.88655770  0.52867226  0.62958348     0.25100
C1975       C  0.88148353  0.53126684  0.60357007    -0.18700
C1976       C  0.90089680  0.52807434  0.58557208    -0.07600
C1977       C  0.86590297  0.53031578  0.64798435    -0.14000
C1978       C  0.84805418  0.53009079  0.66269168    -0.13800
C1979       C  0.82642679  0.52699595  0.67972930     0.25000
C1980       C  0.82446710  0.54094197  0.70244192    -0.19200
C1981       C  0.80544371  0.53505920  0.72036052    -0.07700
C1982       C  0.78817257  0.51509028  0.71583731    -0.03700
C1983       C  0.78917753  0.50252220  0.69221740    -0.09000
C1984       C  0.80812703  0.50835553  0.67442952    -0.16700
H1985       H  0.95003869  0.51572706  0.62593985     0.11500
H1986       H  0.91584980  0.52116985  0.65738671     0.10700
H1987       H  0.86237075  0.53539500  0.59711569     0.10700
H1988       H  0.89611359  0.53002951  0.56564238     0.11200
H1989       H  0.83842205  0.55542970  0.70691766     0.11300
H1990       H  0.80557944  0.54463121  0.73858994     0.11200
H1991       H  0.77647577  0.48674380  0.68839154     0.11400
H1992       H  0.80927631  0.49735346  0.65705779     0.10200
C1993       C  0.02254077  0.58504358  0.41667147    -0.03600
C1994       C  0.02647036  0.57538755  0.39200404    -0.09400
C1995       C  0.03382285  0.59149890  0.37231528    -0.17000
C1996       C  0.03733021  0.61739904  0.37697477     0.25100
C1997       C  0.03316893  0.62732490  0.40128052    -0.18700
C1998       C  0.02589187  0.61121396  0.42109573    -0.07600
C1999       C  0.04253162  0.63404904  0.35615631    -0.14000
C2000       C  0.04239383  0.64778983  0.33796833    -0.13800
C2001       C  0.03588513  0.66387050  0.31710117     0.25000
C2002       C  0.01466202  0.67954240  0.31960540    -0.19200
C2003       C  0.00633046  0.69384225  0.29905446    -0.07700
C2004       C  0.01929926  0.69286560  0.27571694    -0.03700
C2005       C  0.04058794  0.67693965  0.27321378    -0.09000
C2006       C  0.04885711  0.66242277  0.29391754    -0.16700
H2007       H  0.02419484  0.55532363  0.38791179     0.11500
H2008       H  0.03653251  0.58379852  0.35339923     0.10700
H2009       H  0.03532504  0.64751220  0.40485058     0.10700
H2010       H  0.02298078  0.61921980  0.43983084     0.11200
H2011       H  0.00423055  0.68033927  0.33735737     0.11300
H2012       H  0.98950822  0.70547351  0.30133213     0.11200
H2013       H  0.05087602  0.67592685  0.25541851     0.11400
H2014       H  0.06509779  0.64996258  0.29180038     0.10200
C2015       C  0.01638067  0.42471502  0.59353290    -0.03600
C2016       C  0.00718687  0.39981610  0.59034785    -0.09400
C2017       C  0.01598756  0.38025321  0.60592143    -0.17000
C2018       C  0.03419450  0.38532070  0.62464096     0.25100
C2019       C  0.04248434  0.41025285  0.62881764    -0.18700
C2020       C  0.03349137  0.42993798  0.61340781    -0.07600
C2021       C  0.04462527  0.36456408  0.63887572    -0.14000
C2022       C  0.05050033  0.34517224  0.64944728    -0.13800
C2023       C  0.05187494  0.32062339  0.66117950     0.25000
C2024       C  0.06106794  0.31808572  0.68597188    -0.19200
C2025       C  0.05642026  0.29570099  0.69951387    -0.07700
C2026       C  0.04196796  0.27594633  0.68854892    -0.03700
C2027       C  0.03494652  0.27784267  0.66282809    -0.09000
C2028       C  0.03992842  0.30007355  0.64923946    -0.16700
H2029       H  0.99395697  0.39532699  0.57520977     0.11500
H2030       H  0.00925610  0.36101200  0.60278668     0.10700
H2031       H  0.05646051  0.41433815  0.64338581     0.10700
H2032       H  0.04109464  0.44891744  0.61603574     0.11200
H2033       H  0.07036296  0.33390932  0.69535942     0.11300
H2034       H  0.06263026  0.29453816  0.71910855     0.11200
H2035       H  0.02366526  0.26316054  0.65381768     0.11400
H2036       H  0.03267999  0.30195344  0.63004193     0.10200
C2037       C  0.03789691  0.59116149  0.58547719    -0.03600
C2038       C  0.05015201  0.58132634  0.60719218    -0.09400
C2039       C  0.06532921  0.59687178  0.62234597    -0.17000
C2040       C  0.06847496  0.62247583  0.61611767     0.25100
C2041       C  0.05624914  0.63259382  0.59471194    -0.18700
C2042       C  0.04117483  0.61698782  0.57932342    -0.07600
C2043       C  0.08154042  0.63903503  0.63338020    -0.14000
C2044       C  0.08709394  0.65486785  0.64888972    -0.13800
C2045       C  0.08457244  0.67564497  0.66627196     0.25000
C2046       C  0.07420827  0.69814808  0.65690316    -0.19200
C2047       C  0.06222980  0.71502334  0.67330614    -0.07700
C2048       C  0.06076834  0.70988262  0.69962786    -0.03700
C2049       C  0.07464292  0.68896530  0.70918305    -0.09000
C2050       C  0.08592931  0.67158199  0.69251134    -0.16700
H2051       H  0.04860128  0.56139527  0.61219272     0.11500
H2052       H  0.07439568  0.58896420  0.63907068     0.10700
H2053       H  0.05821063  0.65258194  0.59005007     0.10700
H2054       H  0.03232486  0.62503495  0.56256289     0.11200
H2055       H  0.07286027  0.70133805  0.63657989     0.11300
H2056       H  0.05194270  0.73049418  0.66458978     0.11200
H2057       H  0.07520248  0.68483647  0.72931450     0.11400
H2058       H  0.09391824  0.65412102  0.69997624     0.10200
C2059       C  0.98977267  0.39765057  0.06324270    -0.03600
C2060       C  0.97721713  0.40210921  0.08642883    -0.09400
C2061       C  0.97481715  0.38265899  0.10457622    -0.17000
C2062       C  0.98512935  0.35849248  0.10001334     0.25100
C2063       C  0.99823288  0.35409471  0.07724530    -0.18700
C2064       C  0.00043517  0.37342978  0.05897396    -0.07600
C2065       C  0.98219351  0.33828963  0.11863922    -0.14000
C2066       C  0.97995075  0.32192414  0.13477233    -0.13800
C2067       C  0.97817387  0.30360164  0.15537549     0.25000
C2068       C  0.95769245  0.30445424  0.17240652    -0.19200
C2069       C  0.95794852  0.28955812  0.19454707    -0.07700
C2070       C  0.97856730  0.27337354  0.19985698    -0.03700
C2071       C  0.99825210  0.27139513  0.18194751    -0.09000
C2072       C  0.99807698  0.28644187  0.15988544    -0.16700
H2073       H  0.96859831  0.42041122  0.09022839     0.11500
H2074       H  0.96466672  0.38641491  0.12208708     0.10700
H2075       H  0.00649626  0.33561418  0.07346007     0.10700
H2076       H  0.01034533  0.36936569  0.04139534     0.11200
H2077       H  0.94218578  0.31763280  0.16929188     0.11300
H2078       H  0.94285549  0.29186197  0.20835407     0.11200
H2079       H  0.01466391  0.25964743  0.18595966     0.11400
H2080       H  0.01412201  0.28563462  0.14701648     0.10200
C2081       C  0.98799357  0.20450484  0.26798345    -0.03600
C2082       C  0.96504676  0.19091053  0.26995171    -0.09400
C2083       C  0.96366167  0.16862241  0.28477320    -0.17000
C2084       C  0.98521256  0.15956767  0.29773127     0.25100
C2085       C  0.00840905  0.17232543  0.29457914    -0.18700
C2086       C  0.00977179  0.19458259  0.27994270    -0.07600
C2087       C  0.98337438  0.13849976  0.31569792    -0.14000
C2088       C  0.98266994  0.12190389  0.33184289    -0.13800
C2089       C  0.98262054  0.10261009  0.35180729     0.25000
C2090       C  0.99149539  0.07797731  0.34683397    -0.19200
C2091       C  0.99203094  0.05953195  0.36616733    -0.07700
C2092       C  0.98391601  0.06532331  0.39107479    -0.03700
C2093       C  0.97498307  0.09011097  0.39593173    -0.09000
C2094       C  0.97425241  0.10850228  0.37646907    -0.16700
H2095       H  0.94788490  0.19841121  0.26142025     0.11500
H2096       H  0.94553981  0.15908402  0.28698860     0.10700
H2097       H  0.02526766  0.16570783  0.30437071     0.10700
H2098       H  0.02759908  0.20488055  0.27904658     0.11200
H2099       H  0.99814713  0.07301285  0.32799077     0.11300
H2100       H  0.99915163  0.04075248  0.36164716     0.11200
H2101       H  0.96840397  0.09525271  0.41473996     0.11400
H2102       H  0.96729408  0.12740990  0.38072854     0.10200
C2103       C  0.00273256  0.41887282  0.42478189    -0.03600
C2104       C  0.00624922  0.39316242  0.43133758    -0.09400
C2105       C  0.00783402  0.37461399  0.41238280    -0.17000
C2106       C  0.00583117  0.38158921  0.38679009     0.25100
C2107       C  0.00177512  0.40697450  0.38013587    -0.18700
C2108       C  0.00019378  0.42550648  0.39896619    -0.07600
C2109       C  0.00751744  0.36281482  0.36716263    -0.14000
C2110       C  0.00774554  0.34799320  0.34979198    -0.13800
C2111       C  0.00607034  0.33093757  0.32863833     0.25000
C2112       C  0.98831042  0.33560986  0.30942878    -0.19200
C2113       C  0.98515376  0.31814940  0.28971653    -0.07700
C2114       C  0.99975890  0.29577086  0.28902438    -0.03700
C2115       C  0.01825507  0.29173914  0.30794314    -0.09000
C2116       C  0.02131047  0.30920467  0.32770461    -0.16700
H2117       H  0.00830198  0.38744516  0.45101127     0.11500
H2118       H  0.01081683  0.35491693  0.41765747     0.10700
H2119       H  0.00000570  0.41247877  0.36035549     0.10700
H2120       H  0.99733804  0.44508118  0.39321734     0.11200
H2121       H  0.97643601  0.35242643  0.31004808     0.11300
H2122       H  0.97059779  0.32168541  0.27560323     0.11200
H2123       H  0.03009653  0.27491256  0.30764814     0.11400
H2124       H  0.03519899  0.30553472  0.34246568     0.10200
loop_ 
_geom_bond_atom_site_label_1 
_geom_bond_atom_site_label_2 
_geom_bond_distance 
_geom_bond_site_symmetry_2 
_ccdc_geom_bond_type 
C1            C2   1.416       .  A
C1            C6   1.402       .  A
C1         C2070   1.485       .  S
C2            C3   1.416       .  A
C2            H7   1.083       .  S
C3            C4   1.402       .  A
C3         C2081   1.490       .  S
C4            C5   1.400       .  A
C4            H8   1.084       .  S
C5            C6   1.399       .  A
C5         C2114   1.482       .  S
C6            H9   1.084       .  S
O10          C21   1.292       .  A
O10         Eu46   2.457       .  S
O11          C22   1.293       .  A
O11         Eu45   2.465       .  S
O12          C23   1.295       .  A
O12         Eu18   2.482   1_655  S
O13          C24   1.294       .  A
O13         Eu18   2.477       .  S
O14          C24   1.292       .  A
O14         Eu48   2.461       .  S
O15          C23   1.292       .  A
O15         Eu47   2.460       .  S
O16          C22   1.287       .  A
O16         Eu18   2.427       .  S
O17          C21   1.289       .  A
O17         Eu18   2.437       .  S
Eu18         O28   2.359       .  S
Eu18         O20   2.347   1_455  S
Eu18         O19   2.357       .  S
Eu18         O26   2.355   1_455  S
O19         Eu48   2.344       .  S
O19         Eu45   2.358       .  S
O20         Eu46   2.352   1_655  S
O20         Eu47   2.346       .  S
C21        C2103   1.476       .  S
C22        C1993   1.475       .  S
C23        C1927   1.494       .  S
C24        C1916   1.494       .  S
H25          O26   0.969       .  S
O26         Eu47   2.359       .  S
O26         Eu45   2.365   1_655  S
H27          O28   0.965       .  S
O28         Eu46   2.362       .  S
O28         Eu48   2.349       .  S
O29          C52   1.293       .  A
O29         Eu45   2.461       .  S
O30          C53   1.289       .  A
O30         Eu46   2.439       .  S
O31          C54   1.290       .  A
O31         Eu47   2.446       .  S
O32          C55   1.291       .  A
O32         Eu48   2.455       .  S
O33          C56   1.288       .  A
O33         Eu48   2.436       .  S
O34          C57   1.294       .  A
O34         Eu47   2.472       .  S
O35          C58   1.300       .  A
O35         Eu49   2.509   1_655  S
O36          C59   1.299       .  A
O36         Eu49   2.507       .  S
O37          C58   1.291       .  A
O37         Eu47   2.453       .  S
O38          C59   1.289       .  A
O38         Eu48   2.444       .  S
O39          C54   1.297       .  A
O39         Eu45   2.491   1_655  S
O40          C57   1.295       .  A
O40         Eu46   2.476   1_655  S
O41          C56   1.298       .  A
O41         Eu46   2.498       .  S
O42          C55   1.298       .  A
O42         Eu45   2.496       .  S
O43          C52   1.290       .  A
O43         Eu49   2.443       .  S
O44          C53   1.291       .  A
O44         Eu49   2.456       .  S
Eu45         O63   2.346       .  S
Eu45         O51   2.370   1_455  S
Eu46         O50   2.345       .  S
Eu46         O61   2.370   1_455  S
Eu47         O61   2.358       .  S
Eu47         O51   2.361       .  S
Eu48         O50   2.349       .  S
Eu48         O63   2.331       .  S
Eu49         O50   2.354       .  S
Eu49         O61   2.359   1_455  S
Eu49         O63   2.349       .  S
Eu49         O51   2.362   1_455  S
C52        C2037   1.476       .  S
C53        C2015   1.471       .  S
C54        C1894   1.493       .  S
C55        C1828   1.496       .  S
C56        C1872   1.494       .  S
C57        C1850   1.496       .  S
C58        C1971   1.502       .  S
C59        C1960   1.496       .  S
H60          O61   0.967       .  S
H62          O63   0.963       .  S
C64          C65   1.402       .  A
C64          C69   1.412   1_455  A
C64        C1773   1.483   1_455  S
C65          C66   1.406       .  A
C65          H70   1.081       .  S
C66          C67   1.403       .  A
C66        C2048   1.498       .  S
C67          C68   1.402       .  A
C67          H71   1.082       .  S
C68          C69   1.412   1_455  A
C68        C1795   1.485   1_455  S
C69          H72   1.083       .  S
C73          C74   1.413       .  A
C73          C78   1.397       .  A
C73        C1740   1.482   1_455  S
C74          C75   1.417       .  A
C74          H79   1.083   1_455  S
C75          C76   1.407       .  A
C75        C1762   1.487       .  S
C76          C77   1.401       .  A
C76          H80   1.084       .  S
C77          C78   1.397       .  A
C77        C2026   1.484       .  S
C78          H81   1.084       .  S
C82          C83   1.406   1_655  A
C82          C87   1.420       .  A
C82        C1696   1.487       .  S
C83          C84   1.398       .  A
C83          H88   1.084       .  S
C84          C85   1.393       .  A
C84        C2004   1.475       .  S
C85          C86   1.394   1_455  A
C85          H89   1.085       .  S
C86          C87   1.415       .  A
C86        C1707   1.481       .  S
C87          H90   1.083       .  S
O91         C102   1.292       .  A
O91        Eu127   2.466   1_545  S
O92         C103   1.290       .  A
O92        Eu126   2.448   1_545  S
O93         C104   1.288       .  A
O93         Eu99   2.431       .  S
O94         C105   1.289       .  A
O94         Eu99   2.441   1_455  S
O95         C105   1.291       .  A
O95        Eu129   2.453   1_545  S
O96         C104   1.289       .  A
O96        Eu128   2.445   1_545  S
O97         C103   1.296       .  A
O97         Eu99   2.487       .  S
O98         C102   1.298       .  A
O98         Eu99   2.499       .  S
Eu99        O109   2.348   1_655  S
Eu99        O101   2.353       .  S
Eu99        O100   2.358   1_655  S
Eu99        O107   2.358       .  S
O100       Eu129   2.353   1_545  S
O100       Eu126   2.348   1_445  S
O101       Eu127   2.345   1_545  S
O101       Eu128   2.357   1_545  S
C102       C2092   1.500       .  S
C103       C1751   1.493       .  S
C104       C1652   1.470       .  S
C105       C1674   1.475       .  S
H106        O107   0.965       .  S
O107       Eu128   2.365   1_545  S
O107       Eu126   2.353   1_545  S
H108        O109   0.966       .  S
O109       Eu127   2.345   1_445  S
O109       Eu129   2.359   1_545  S
O110        C133   1.289       .  A
O110       Eu126   2.444       .  S
O111        C134   1.289       .  A
O111       Eu127   2.443       .  S
O112        C135   1.295       .  A
O112       Eu128   2.485       .  S
O113        C136   1.298       .  A
O113       Eu129   2.501       .  S
O114        C137   1.296       .  A
O114       Eu129   2.485       .  S
O115        C138   1.297       .  A
O115       Eu128   2.495       .  S
O116        C139   1.291       .  A
O116       Eu130   2.454       .  S
O117        C140   1.292       .  A
O117       Eu130   2.457   1_455  S
O118        C139   1.291       .  A
O118       Eu128   2.448       .  S
O119        C140   1.290       .  A
O119       Eu129   2.444       .  S
O120        C135   1.294       .  A
O120       Eu126   2.475       .  S
O121        C138   1.288       .  A
O121       Eu127   2.438       .  S
O122        C137   1.291       .  A
O122       Eu127   2.457   1_455  S
O123        C136   1.291       .  A
O123       Eu126   2.457   1_455  S
O124        C133   1.297       .  A
O124       Eu130   2.489       .  S
O125        C134   1.299       .  A
O125       Eu130   2.501       .  S
Eu126       O144   2.367   1_655  S
Eu126       O132   2.327       .  S
Eu127       O131   2.345   1_655  S
Eu127       O142   2.372       .  S
Eu128       O142   2.363       .  S
Eu128       O132   2.336       .  S
Eu129       O131   2.354       .  S
Eu129       O144   2.364       .  S
Eu130       O131   2.349   1_655  S
Eu130       O142   2.371       .  S
Eu130       O144   2.372   1_655  S
Eu130       O132   2.337       .  S
C133       C1806   1.492       .  S
C134       C1718   1.495       .  S
C135       C1520   1.497       .  S
C136       C1531   1.500       .  S
C137       C1553   1.494       .  S
C138       C1586   1.493       .  S
C139       C1630   1.482       .  S
C140       C1597   1.478       .  S
H141        O142   0.967       .  S
H143        O144   0.966       .  S
C145        C146   1.399       .  A
C145        C150   1.417       .  A
C145       C1861   1.483       .  S
C146        C147   1.397       .  A
C146        H151   1.085       .  S
C147        C148   1.398       .  A
C147       C1663   1.475       .  S
C148        C149   1.401       .  A
C148        H152   1.085       .  S
C149        C150   1.418       .  A
C149       C1487   1.486       .  S
C150        H153   1.083       .  S
C154        C155   1.395       .  A
C154        C159   1.419       .  A
C154       C1476   1.484       .  S
C155        C156   1.391       .  A
C155        H160   1.085       .  S
C156        C157   1.395       .  A
C156       C1641   1.471       .  S
C157        C158   1.404       .  A
C157        H161   1.084       .  S
C158        C159   1.422       .  A
C158       C1839   1.491       .  S
C159        H162   1.083       .  S
C163        C164   1.403       .  A
C163        C168   1.415       .  A
C163       C1454   1.485       .  S
C164        C165   1.401       .  A
C164        H169   1.083       .  S
C165        C166   1.402       .  A
C165       C1619   1.489       .  S
C166        C167   1.400       .  A
C166        H170   1.083       .  S
C167        C168   1.413       .  A
C167       C1883   1.482       .  S
C168        H171   1.083       .  S
C172        C173   1.395       .  A
C172        C177   1.412       .  A
C172       C1817   1.480       .  S
C173        C174   1.395       .  A
C173        H178   1.085       .  S
C174        C175   1.401       .  A
C174       C1608   1.480       .  S
C175        C176   1.408       .  A
C175        H179   1.084       .  S
C176        C177   1.417       .  A
C176       C1421   1.489       .  S
C177        H180   1.083       .  S
C181        C182   1.416       .  A
C181        C186   1.403       .  A
C181       C1377   1.479       .  S
C182        C183   1.415       .  A
C182        H187   1.083       .  S
C183        C184   1.398       .  A
C183       C1575   1.481       .  S
C184        C185   1.394       .  A
C184        H188   1.085       .  S
C185        C186   1.395       .  A
C185       C1399   1.472       .  S
C186        H189   1.085       .  S
O190        C201   1.291       .  A
O190       Eu226   2.460       .  S
O191        C202   1.295       .  A
O191       Eu225   2.476       .  S
O192        C203   1.290   1_545  A
O192       Eu198   2.451       .  S
O193        C204   1.288       .  A
O193       Eu198   2.428   1_565  S
O194        C204   1.289   1_545  A
O194       Eu228   2.443       .  S
O195        C203   1.289       .  A
O195       Eu227   2.437   1_565  S
O196        C202   1.294       .  A
O196       Eu198   2.472   1_565  S
O197        C201   1.298       .  A
O197       Eu198   2.496       .  S
Eu198       O208   2.356       .  S
Eu198       O200   2.347       .  S
Eu198       O199   2.355   1_545  S
Eu198       O206   2.358   1_545  S
O199       Eu228   2.347   1_565  S
O199       Eu225   2.340       .  S
O200       Eu226   2.348       .  S
O200       Eu227   2.357       .  S
C201       C1498   1.500       .  S
C202       C1432   1.495       .  S
C203       C1311   1.475       .  S
C204       C1355   1.470       .  S
H205        O206   0.966       .  S
O206       Eu227   2.344   1_565  S
O206       Eu225   2.355       .  S
H207        O208   0.966       .  S
O208       Eu226   2.356       .  S
O208       Eu228   2.366       .  S
O209        C232   1.291       .  A
O209       Eu225   2.451       .  S
O210        C233   1.289       .  A
O210       Eu226   2.444       .  S
O211        C234   1.298       .  A
O211       Eu227   2.501   1_565  S
O212        C235   1.297       .  A
O212       Eu228   2.495   1_565  S
O213        C236   1.297       .  A
O213       Eu228   2.495       .  S
O214        C237   1.295       .  A
O214       Eu227   2.484       .  S
O215        C238   1.295   1_545  A
O215       Eu229   2.476       .  S
O216        C239   1.292       .  A
O216       Eu229   2.459       .  S
O217        C238   1.285       .  A
O217       Eu227   2.415   1_565  S
O218        C239   1.289       .  A
O218       Eu228   2.442       .  S
O219        C234   1.293       .  A
O219       Eu225   2.468       .  S
O220        C237   1.289       .  A
O220       Eu226   2.444       .  S
O221        C236   1.291       .  A
O221       Eu226   2.453       .  S
O222        C235   1.291       .  A
O222       Eu225   2.454       .  S
O223        C232   1.299       .  A
O223       Eu229   2.505   1_565  S
O224        C233   1.299       .  A
O224       Eu229   2.505       .  S
Eu225       O243   2.377       .  S
Eu225       O231   2.345       .  S
Eu226       O230   2.333       .  S
Eu226       O241   2.365       .  S
Eu227       O241   2.360       .  S
Eu227       O231   2.348   1_545  S
Eu228       O230   2.340       .  S
Eu228       O243   2.370   1_545  S
Eu229       O230   2.346       .  S
Eu229       O241   2.363       .  S
Eu229       O243   2.376   1_545  S
Eu229       O231   2.355   1_545  S
C232       C1443   1.499       .  S
C233       C1465   1.497       .  S
C234       C1256   1.503       .  S
C235       C1289   1.497       .  S
C236       C1278   1.497       .  S
C237       C1223   1.486       .  S
C238       C1410   1.478       .  S
C239       C1333   1.480       .  S
H240        O241   0.966       .  S
H242        O243   0.967       .  S
C244        C245   1.416       .  A
C244        C249   1.397       .  A
C244       C1201   1.480       .  S
C245        C246   1.417       .  A
C245        H250   1.083       .  S
C246        C247   1.402       .  A
C246       C1542   1.485       .  S
C247        C248   1.398       .  A
C247        H251   1.084       .  S
C248        C249   1.394       .  A
C248       C1366   1.474       .  S
C249        H252   1.085       .  S
C253        C254   1.418       .  A
C253        C258   1.402   1_565  A
C253       C1179   1.487       .  S
C254        C255   1.418       .  A
C254        H259   1.083       .  S
C255        C256   1.400   1_565  A
C255       C1509   1.486       .  S
C256        C257   1.395       .  A
C256        H260   1.085       .  S
C257        C258   1.398       .  A
C257       C1344   1.480       .  S
C258        H261   1.084       .  S
C262        C263   1.414       .  A
C262        C267   1.401       .  A
C262       C1168   1.481       .  S
C263        C264   1.413       .  A
C263        H268   1.083       .  S
C264        C265   1.401       .  A
C264       C1564   1.479       .  S
C265        C266   1.397       .  A
C265        H269   1.085       .  S
C266        C267   1.396       .  A
C266       C1322   1.474       .  S
C267        H270   1.085       .  S
O271        C282   1.291       .  A
O271       Eu307   2.454   1_554  S
O272        C283   1.289       .  A
O272       Eu306   2.444   1_554  S
O273        C284   1.290       .  A
O273       Eu279   2.448   1_545  S
O274        C285   1.290       .  A
O274       Eu279   2.445       .  S
O275        C285   1.290       .  A
O275       Eu309   2.449   1_554  S
O276        C284   1.292       .  A
O276       Eu308   2.459   1_554  S
O277        C283   1.297       .  A
O277       Eu279   2.495       .  S
O278        C282   1.295       .  A
O278       Eu279   2.481       .  S
Eu279       O289   2.367   1_554  S
Eu279       O281   2.347   1_565  S
Eu279       O280   2.347       .  S
Eu279       O287   2.363   1_565  S
O280       Eu309   2.360   1_554  S
O280       Eu306   2.343   1_554  S
O281       Eu307   2.342   1_544  S
O281       Eu308   2.346   1_554  S
C282       C1388   1.491       .  S
C283       C1157   1.495       .  S
C284       C1135   1.479       .  S
C285       C1113   1.469       .  S
H286        O287   0.966       .  S
O287       Eu308   2.366   1_554  S
O287       Eu306   2.351   1_544  S
H288        O289   0.968   1_554  S
O289       Eu307   2.356       .  S
O289       Eu309   2.365       .  S
O290        C313   1.290       .  A
O290       Eu306   2.449       .  S
O291        C314   1.289       .  A
O291       Eu307   2.445       .  S
O292        C315   1.297       .  A
O292       Eu308   2.496       .  S
O293        C316   1.298       .  A
O293       Eu309   2.501       .  S
O294        C317   1.298       .  A
O294       Eu309   2.498       .  S
O295        C318   1.296       .  A
O295       Eu308   2.487       .  S
O296        C319   1.290       .  A
O296       Eu310   2.446   1_545  S
O297        C320   1.291       .  A
O297       Eu310   2.452       .  S
O298        C319   1.290       .  A
O298       Eu308   2.446       .  S
O299        C320   1.292       .  A
O299       Eu309   2.454       .  S
O300        C315   1.289       .  A
O300       Eu306   2.441   1_545  S
O301        C318   1.291       .  A
O301       Eu307   2.455   1_545  S
O302        C317   1.291       .  A
O302       Eu307   2.450       .  S
O303        C316   1.290       .  A
O303       Eu306   2.446       .  S
O304        C313   1.295       .  A
O304       Eu310   2.478       .  S
O305        C314   1.298       .  A
O305       Eu310   2.500       .  S
Eu306       O324   2.335       .  S
Eu306       O312   2.342   1_565  S
Eu307       O311   2.357       .  S
Eu307       O322   2.356   1_565  S
Eu308       O322   2.369       .  S
Eu308       O312   2.348       .  S
Eu309       O311   2.365       .  S
Eu309       O324   2.347       .  S
Eu310       O311   2.358       .  S
Eu310       O322   2.359   1_565  S
Eu310       O324   2.353       .  S
Eu310       O312   2.357   1_565  S
C313       C1212   1.487       .  S
C314       C1190   1.497       .  S
C315       C1047   1.495       .  S
C316       C1003   1.497       .  S
C317       C1036   1.497       .  S
C318        C981   1.494       .  S
C319       C1069   1.476       .  S
C320       C1102   1.477       .  S
H321        O322   0.966       .  S
H323        O324   0.963       .  S
C325        C326   1.402       .  A
C325        C330   1.411       .  A
C325       C1234   1.477       .  S
C326        C327   1.399       .  A
C326        H331   1.084       .  S
C327        C328   1.399       .  A
C327       C1146   1.481       .  S
C328        C329   1.400       .  A
C328        H332   1.084       .  S
C329        C330   1.410       .  A
C329        C970   1.477       .  S
C330        H333   1.083       .  S
C334        C335   1.395       .  A
C334        C339   1.418       .  A
C334        C937   1.482       .  S
C335        C336   1.391       .  A
C335        H340   1.086       .  S
C336        C337   1.399       .  A
C336       C1124   1.474       .  S
C337        C338   1.407       .  A
C337        H341   1.084       .  S
C338        C339   1.422       .  A
C338       C1245   1.492       .  S
C339        H342   1.083       .  S
C343        C344   1.406       .  A
C343        C348   1.417       .  A
C343        C926   1.491       .  S
C344        C345   1.405       .  A
C344        H349   1.082       .  S
C345        C346   1.400       .  A
C345       C1091   1.495       .  S
C346        C347   1.399       .  A
C346        H350   1.083       .  S
C347        C348   1.416       .  A
C347       C1300   1.487       .  S
C348        H351   1.083       .  S
C352        C353   1.396       .  A
C352        C357   1.415       .  A
C352       C1267   1.480       .  S
C353        C354   1.393       .  A
C353        H358   1.085       .  S
C354        C355   1.397       .  A
C354       C1080   1.475       .  S
C355        C356   1.407       .  A
C355        H359   1.084       .  S
C356        C357   1.419       .  A
C356        C904   1.488       .  S
C357        H360   1.083       .  S
O361        C372   1.290       .  A
O361       Eu397   2.455   1_554  S
O362        C373   1.293       .  A
O362       Eu396   2.466   1_554  S
O363        C374   1.291       .  A
O363       Eu369   2.451   1_455  S
O364        C375   1.289       .  A
O364       Eu369   2.435       .  S
O365        C375   1.292       .  A
O365       Eu399   2.464   1_554  S
O366        C374   1.291       .  A
O366       Eu398   2.452   1_554  S
O367        C373   1.295       .  A
O367       Eu369   2.479       .  S
O368        C372   1.296       .  A
O368       Eu369   2.489       .  S
Eu369       O379   2.356       .  S
Eu369       O371   2.350   1_655  S
Eu369       O370   2.352   1_554  S
Eu369       O377   2.353   1_654  S
O370       Eu399   2.357       .  S
O370       Eu396   2.348       .  S
O371       Eu397   2.344   1_454  S
O371       Eu398   2.356   1_554  S
C372       C2059   1.491       .  S
C373       C1685   1.495       .  S
C374        C849   1.479       .  S
C375        C871   1.477       .  S
H376        O377   0.966   1_554  S
O377       Eu398   2.351       .  S
O377       Eu396   2.350   1_455  S
H378        O379   0.967       .  S
O379       Eu397   2.354   1_554  S
O379       Eu399   2.362   1_554  S
O380        C403   1.290       .  A
O380       Eu396   2.449       .  S
O381        C404   1.291       .  A
O381       Eu397   2.453       .  S
O382        C405   1.297       .  A
O382       Eu398   2.489       .  S
O383        C406   1.298       .  A
O383       Eu399   2.500       .  S
O384        C407   1.299       .  A
O384       Eu399   2.508       .  S
O385        C408   1.296       .  A
O385       Eu398   2.490       .  S
O386        C409   1.292       .  A
O386       Eu400   2.463   1_455  S
O387        C410   1.290       .  A
O387       Eu400   2.445       .  S
O388        C409   1.289       .  A
O388       Eu398   2.435       .  S
O389        C410   1.292       .  A
O389       Eu399   2.456       .  S
O390        C405   1.293       .  A
O390       Eu396   2.466   1_455  S
O391        C408   1.289       .  A
O391       Eu397   2.442   1_455  S
O392        C407   1.288       .  A
O392       Eu397   2.435       .  S
O393        C406   1.290       .  A
O393       Eu396   2.448       .  S
O394        C403   1.298       .  A
O394       Eu400   2.501       .  S
O395        C404   1.296       .  A
O395       Eu400   2.487       .  S
Eu396       O414   2.367       .  S
Eu396       O402   2.352   1_655  S
Eu397       O401   2.342       .  S
Eu397       O412   2.351   1_655  S
Eu398       O412   2.356       .  S
Eu398       O402   2.361       .  S
Eu399       O401   2.351       .  S
Eu399       O414   2.374       .  S
Eu400       O401   2.353       .  S
Eu400       O412   2.361   1_655  S
Eu400       O414   2.366       .  S
Eu400       O402   2.358   1_655  S
C403       C1784   1.499       .  S
C404       C1729   1.494       .  S
C405        C761   1.499       .  S
C406        C717   1.496       .  S
C407        C750   1.495       .  S
C408        C783   1.487       .  S
C409        C827   1.476       .  S
C410        C805   1.480       .  S
H411        O412   0.965       .  S
H413        O414   0.966       .  S
C415        C416   1.402       .  A
C415        C420   1.418       .  A
C415       C1938   1.480       .  S
C416        C417   1.396       .  A
C416        H421   1.085       .  S
C417        C418   1.394       .  A
C417        C882   1.472       .  S
C418        C419   1.397       .  A
C418        H422   1.085       .  S
C419        C420   1.415       .  A
C419        C706   1.481       .  S
C420        H423   1.083       .  S
C424        C425   1.400       .  A
C424        C429   1.415       .  A
C424        C684   1.482       .  S
C425        C426   1.397       .  A
C425        H430   1.084       .  S
C426        C427   1.397       .  A
C426        C860   1.479       .  S
C427        C428   1.401       .  A
C427        H431   1.084       .  S
C428        C429   1.416       .  A
C428       C1905   1.480       .  S
C429        H432   1.083       .  S
C433        C434   1.416       .  A
C433        C438   1.404       .  A
C433        C662   1.481       .  S
C434        C435   1.414       .  A
C434        H439   1.083       .  S
C435        C436   1.398       .  A
C435       C1949   1.483       .  S
C436        C437   1.397       .  A
C436        H440   1.084       .  S
C437        C438   1.398       .  A
C437        C838   1.481       .  S
C438        H441   1.084       .  S
C442        C443   1.401       .  A
C442        C447   1.417       .  A
C442       C1982   1.492       .  S
C443        C444   1.399       .  A
C443        H448   1.083       .  S
C444        C445   1.403       .  A
C444        C816   1.492       .  S
C445        C446   1.406       .  A
C445        H449   1.082       .  S
C446        C447   1.418       .  A
C446        C629   1.494       .  S
C447        H450   1.083       .  S
C451        C452   1.415       .  A
C451        C456   1.400       .  A
C451        C794   1.478       .  S
C452        C453   1.415       .  A
C452        H457   1.083       .  S
C453        C454   1.400       .  A
C453       C1058   1.479       .  S
C454        C455   1.394       .  A
C454        H458   1.085       .  S
C455        C456   1.393       .  A
C455        C607   1.468       .  S
C456        H459   1.085       .  S
O460        C471   1.289       .  A
O460       Eu496   2.442       .  S
O461        C472   1.294       .  A
O461       Eu495   2.470       .  S
O462        C473   1.292       .  A
O462       Eu468   2.460   1_556  S
O463        C474   1.290       .  A
O463       Eu468   2.440       .  S
O464        C474   1.291       .  A
O464       Eu498   2.455       .  S
O465        C473   1.290       .  A
O465       Eu497   2.445   1_556  S
O466        C472   1.295       .  A
O466       Eu468   2.482   1_556  S
O467        C471   1.296       .  A
O467       Eu468   2.486       .  S
Eu468       O478   2.363       .  S
Eu468       O470   2.355       .  S
Eu468       O469   2.361   1_554  S
Eu468       O476   2.348   1_554  S
O469       Eu498   2.358   1_556  S
O469       Eu495   2.352       .  S
O470       Eu496   2.352       .  S
O470       Eu497   2.353       .  S
C471        C959   1.486       .  S
C472        C893   1.497       .  S
C473        C618   1.479       .  S
C474        C541   1.476       .  S
H475        O476   0.965       .  S
O476       Eu497   2.346   1_556  S
O476       Eu495   2.342       .  S
H477        O478   0.967       .  S
O478       Eu496   2.352       .  S
O478       Eu498   2.365       .  S
O479        C502   1.290       .  A
O479       Eu495   2.446       .  S
O480        C503   1.290       .  A
O480       Eu496   2.448       .  S
O481        C504   1.295       .  A
O481       Eu497   2.483   1_556  S
O482        C505   1.298       .  A
O482       Eu498   2.498   1_556  S
O483        C506   1.297       .  A
O483       Eu498   2.495       .  S
O484        C507   1.296       .  A
O484       Eu497   2.487       .  S
O485        C508   1.294       .  A
O485       Eu499   2.472       .  S
O486        C509   1.292       .  A
O486       Eu499   2.459       .  S
O487        C508   1.286       .  A
O487       Eu497   2.422       .  S
O488        C509   1.291       .  A
O488       Eu498   2.450       .  S
O489        C504   1.292       .  A
O489       Eu495   2.458       .  S
O490        C507   1.288       .  A
O490       Eu496   2.438       .  S
O491        C506   1.291       .  A
O491       Eu496   2.456       .  S
O492        C505   1.289       .  A
O492       Eu495   2.444       .  S
O493        C502   1.300       .  A
O493       Eu499   2.508   1_556  S
O494        C503   1.297       .  A
O494       Eu499   2.491       .  S
Eu495       O513   2.367       .  S
Eu495       O501   2.353       .  S
Eu496       O500   2.329       .  S
Eu496       O511   2.350       .  S
Eu497       O511   2.355       .  S
Eu497       O501   2.360   1_554  S
Eu498       O500   2.339       .  S
Eu498       O513   2.370   1_554  S
Eu499       O500   2.345       .  S
Eu499       O511   2.361       .  S
Eu499       O513   2.367   1_554  S
Eu499       O501   2.360   1_554  S
C502        C915   1.498       .  S
C503        C948   1.493       .  S
C504        C651   1.494       .  S
C505        C640   1.493       .  S
C506        C695   1.497       .  S
C507        C673   1.488       .  S
C508        C574   1.473       .  S
C509        C585   1.482       .  S
H510        O511   0.966       .  S
H512        O513   0.968       .  S
C514        C515   1.418       .  A
C514        C519   1.400   1_556  A
C514       C1025   1.485       .  S
C515        C516   1.418       .  A
C515        H520   1.083       .  S
C516        C517   1.404   1_556  A
C516        C728   1.491       .  S
C517        C518   1.402       .  A
C517        H521   1.083       .  S
C518        C519   1.396       .  A
C518        C596   1.487       .  S
C519        H522   1.084       .  S
C523        C524   1.398       .  A
C523        C528   1.418       .  A
C523       C1014   1.484       .  S
C524        C525   1.395       .  A
C524        H529   1.085       .  S
C525        C526   1.397       .  A
C525        C563   1.475       .  S
C526        C527   1.402       .  A
C526        H530   1.084       .  S
C527        C528   1.420       .  A
C527        C772   1.486       .  S
C528        H531   1.083       .  S
C532        C533   1.396       .  A
C532        C537   1.413       .  A
C532        C739   1.478       .  S
C533        C534   1.392       .  A
C533        H538   1.086       .  S
C534        C535   1.397       .  A
C534        C552   1.469       .  S
C535        C536   1.404       .  A
C535        H539   1.085       .  S
C536        C537   1.416       .  A
C536        C992   1.480       .  S
C537        H540   1.083       .  S
C541        C542   1.408   1_554  A
C541        C546   1.407       .  A
C542        C543   1.397       .  A
C542        H555   1.083       .  S
C543        C544   1.398       .  A
C543        H556   1.083       .  S
C544        C545   1.396   1_556  A
C544        C547   1.430       .  S
C545        C546   1.391       .  A
C545        H557   1.084       .  S
C546        H558   1.083       .  S
C547        C548   1.200       .  T
C548        C549   1.430       .  S
C549        C550   1.400   1_556  A
C549        C554   1.398       .  A
C550        C551   1.396   1_554  A
C550        H559   1.084       .  S
C551        C552   1.402       .  A
C551        H560   1.083   1_556  S
C552        C553   1.405       .  A
C553        C554   1.394       .  A
C553        H561   1.083       .  S
C554        H562   1.084       .  S
C563        C564   1.406       .  A
C563        C568   1.406   1_556  A
C564        C565   1.391       .  A
C564        H577   1.083       .  S
C565        C566   1.396       .  A
C565        H578   1.084       .  S
C566        C567   1.399   1_556  A
C566        C569   1.429   1_556  S
C567        C568   1.397       .  A
C567        H579   1.083       .  S
C568        H580   1.083       .  S
C569        C570   1.199       .  T
C570        C571   1.429       .  S
C571        C572   1.394       .  A
C571        C576   1.400   1_554  A
C572        C573   1.391       .  A
C572        H581   1.084       .  S
C573        C574   1.409       .  A
C573        H582   1.083       .  S
C574        C575   1.404       .  A
C575        C576   1.398   1_554  A
C575        H583   1.083   1_554  S
C576        H584   1.083       .  S
C585        C586   1.409       .  A
C585        C590   1.408       .  A
C586        C587   1.398       .  A
C586        H599   1.083       .  S
C587        C588   1.399       .  A
C587        H600   1.084       .  S
C588        C589   1.398       .  A
C588        C591   1.435       .  S
C589        C590   1.395       .  A
C589        H601   1.084       .  S
C590        H602   1.083       .  S
C591        C592   1.202       .  T
C592        C593   1.432       .  S
C593        C594   1.396       .  A
C593        C598   1.398       .  A
C594        C595   1.391       .  A
C594        H603   1.084       .  S
C595        C596   1.410       .  A
C595        H604   1.082       .  S
C596        C597   1.409       .  A
C597        C598   1.398       .  A
C597        H605   1.082       .  S
C598        H606   1.083       .  S
C607        C608   1.404       .  A
C607        C612   1.402       .  A
C608        C609   1.397       .  A
C608        H621   1.083       .  S
C609        C610   1.399       .  A
C609        H622   1.083       .  S
C610        C611   1.399       .  A
C610        C613   1.431       .  S
C611        C612   1.393       .  A
C611        H623   1.084   1_556  S
C612        H624   1.083   1_556  S
C613        C614   1.201       .  T
C614        C615   1.432       .  S
C615        C616   1.398       .  A
C615        C620   1.397       .  A
C616        C617   1.397       .  A
C616        H625   1.084       .  S
C617        C618   1.408       .  A
C617        H626   1.083       .  S
C618        C619   1.408       .  A
C619        C620   1.394       .  A
C619        H627   1.083       .  S
C620        H628   1.084       .  S
C629        C630   1.406       .  A
C629        C634   1.410       .  A
C630        C631   1.408       .  A
C630        H643   1.083       .  S
C631        C632   1.405       .  A
C631        H644   1.083       .  S
C632        C633   1.400       .  A
C632        C635   1.453       .  S
C633        C634   1.401       .  A
C633        H645   1.084       .  S
C634        H646   1.083       .  S
C635        C636   1.214       .  T
C636        C637   1.453       .  S
C637        C638   1.400       .  A
C637        C642   1.404       .  A
C638        C639   1.401       .  A
C638        H647   1.084       .  S
C639        C640   1.412       .  A
C639        H648   1.083       .  S
C640        C641   1.407       .  A
C641        C642   1.405       .  A
C641        H649   1.083       .  S
C642        H650   1.083       .  S
C651        C652   1.410       .  A
C651        C656   1.411       .  A
C652        C653   1.406       .  A
C652        H665   1.083       .  S
C653        C654   1.404       .  A
C653        H666   1.083       .  S
C654        C655   1.398       .  A
C654        C657   1.450       .  S
C655        C656   1.399       .  A
C655        H667   1.083       .  S
C656        H668   1.083       .  S
C657        C658   1.212       .  T
C658        C659   1.450       .  S
C659        C660   1.404       .  A
C659        C664   1.401       .  A
C660        C661   1.405       .  A
C660        H669   1.083       .  S
C661        C662   1.406       .  A
C661        H670   1.083       .  S
C662        C663   1.405       .  A
C663        C664   1.400       .  A
C663        H671   1.083       .  S
C664        H672   1.083       .  S
C673        C674   1.411       .  A
C673        C678   1.408       .  A
C674        C675   1.397       .  A
C674        H687   1.083       .  S
C675        C676   1.397       .  A
C675        H688   1.084       .  S
C676        C677   1.404       .  A
C676        C679   1.447       .  S
C677        C678   1.405       .  A
C677        H689   1.083       .  S
C678        H690   1.083       .  S
C679        C680   1.211       .  T
C680        C681   1.447       .  S
C681        C682   1.399       .  A
C681        C686   1.405       .  A
C682        C683   1.397       .  A
C682        H691   1.084       .  S
C683        C684   1.407       .  A
C683        H692   1.083       .  S
C684        C685   1.406       .  A
C685        C686   1.406       .  A
C685        H693   1.083       .  S
C686        H694   1.083       .  S
C695        C696   1.412       .  A
C695        C700   1.409       .  A
C696        C697   1.401       .  A
C696        H709   1.083       .  S
C697        C698   1.399       .  A
C697        H710   1.084       .  S
C698        C699   1.405       .  A
C698        C701   1.454       .  S
C699        C700   1.408       .  A
C699        H711   1.083       .  S
C700        H712   1.083       .  S
C701        C702   1.215       .  T
C702        C703   1.454       .  S
C703        C704   1.404       .  A
C703        C708   1.402       .  A
C704        C705   1.405       .  A
C704        H713   1.083       .  S
C705        C706   1.407       .  A
C705        H714   1.083       .  S
C706        C707   1.405       .  A
C707        C708   1.402       .  A
C707        H715   1.083       .  S
C708        H716   1.083       .  S
C717        C718   1.412       .  A
C717        C722   1.409       .  A
C718        C719   1.400       .  A
C718        H731   1.083       .  S
C719        C720   1.399       .  A
C719        H732   1.084       .  S
C720        C721   1.405       .  A
C720        C723   1.454       .  S
C721        C722   1.408       .  A
C721        H733   1.083       .  S
C722        H734   1.083       .  S
C723        C724   1.215       .  T
C724        C725   1.455       .  S
C725        C726   1.407       .  A
C725        C730   1.399       .  A
C726        C727   1.410       .  A
C726        H735   1.083       .  S
C727        C728   1.407       .  A
C727        H736   1.083       .  S
C728        C729   1.408       .  A
C729        C730   1.399       .  A
C729        H737   1.083   1_556  S
C730        H738   1.084   1_556  S
C739        C740   1.406       .  A
C739        C744   1.405       .  A
C740        C741   1.403       .  A
C740        H753   1.083       .  S
C741        C742   1.402       .  A
C741        H754   1.083       .  S
C742        C743   1.402       .  A
C742        C745   1.450       .  S
C743        C744   1.402       .  A
C743        H755   1.083   1_556  S
C744        H756   1.083   1_556  S
C745        C746   1.212       .  T
C746        C747   1.450       .  S
C747        C748   1.397       .  A
C747        C752   1.405       .  A
C748        C749   1.399       .  A
C748        H757   1.084       .  S
C749        C750   1.413       .  A
C749        H758   1.083       .  S
C750        C751   1.407       .  A
C751        C752   1.407       .  A
C751        H759   1.083       .  S
C752        H760   1.083       .  S
C761        C762   1.412       .  A
C761        C766   1.410       .  A
C762        C763   1.404       .  A
C762        H775   1.083       .  S
C763        C764   1.401       .  A
C763        H776   1.083       .  S
C764        C765   1.404       .  A
C764        C767   1.457       .  S
C765        C766   1.407       .  A
C765        H777   1.083       .  S
C766        H778   1.083       .  S
C767        C768   1.216       .  T
C768        C769   1.457       .  S
C769        C770   1.405       .  A
C769        C774   1.402       .  A
C770        C771   1.407       .  A
C770        H779   1.083   1_556  S
C771        C772   1.406       .  A
C771        H780   1.083   1_556  S
C772        C773   1.407       .  A
C773        C774   1.403       .  A
C773        H781   1.083       .  S
C774        H782   1.083       .  S
C783        C784   1.409       .  A
C783        C788   1.407       .  A
C784        C785   1.398       .  A
C784        H797   1.083       .  S
C785        C786   1.398       .  A
C785        H798   1.084       .  S
C786        C787   1.404       .  A
C786        C789   1.448       .  S
C787        C788   1.405       .  A
C787        H799   1.083       .  S
C788        H800   1.083       .  S
C789        C790   1.211       .  T
C790        C791   1.448       .  S
C791        C792   1.403       .  A
C791        C796   1.400       .  A
C792        C793   1.404       .  A
C792        H801   1.083       .  S
C793        C794   1.405       .  A
C793        H802   1.083       .  S
C794        C795   1.405       .  A
C795        C796   1.399       .  A
C795        H803   1.083   1_556  S
C796        H804   1.084   1_556  S
C805        C806   1.409       .  A
C805        C810   1.408       .  A
C806        C807   1.395       .  A
C806        H819   1.083       .  S
C807        C808   1.397       .  A
C807        H820   1.084       .  S
C808        C809   1.399       .  A
C808        C811   1.433       .  S
C809        C810   1.397       .  A
C809        H821   1.084       .  S
C810        H822   1.083       .  S
C811        C812   1.201       .  T
C812        C813   1.430       .  S
C813        C814   1.399       .  A
C813        C818   1.394       .  A
C814        C815   1.399       .  A
C814        H823   1.083       .  S
C815        C816   1.410       .  A
C815        H824   1.082       .  S
C816        C817   1.411       .  A
C817        C818   1.390       .  A
C817        H825   1.081       .  S
C818        H826   1.084       .  S
C827        C828   1.408       .  A
C827        C832   1.407       .  A
C828        C829   1.400       .  A
C828        H841   1.083       .  S
C829        C830   1.401       .  A
C829        H842   1.083       .  S
C830        C831   1.395       .  A
C830        C833   1.431       .  S
C831        C832   1.390       .  A
C831        H843   1.084       .  S
C832        H844   1.083       .  S
C833        C834   1.201       .  T
C834        C835   1.431       .  S
C835        C836   1.400       .  A
C835        C840   1.396       .  A
C836        C837   1.396       .  A
C836        H845   1.084       .  S
C837        C838   1.406       .  A
C837        H846   1.083       .  S
C838        C839   1.408       .  A
C839        C840   1.394       .  A
C839        H847   1.083       .  S
C840        H848   1.084       .  S
C849        C850   1.408       .  A
C849        C854   1.408       .  A
C850        C851   1.394       .  A
C850        H863   1.083       .  S
C851        C852   1.397       .  A
C851        H864   1.084       .  S
C852        C853   1.399       .  A
C852        C855   1.433       .  S
C853        C854   1.397       .  A
C853        H865   1.084       .  S
C854        H866   1.083       .  S
C855        C856   1.202       .  T
C856        C857   1.433       .  S
C857        C858   1.397       .  A
C857        C862   1.399       .  A
C858        C859   1.394       .  A
C858        H867   1.084       .  S
C859        C860   1.407       .  A
C859        H868   1.083       .  S
C860        C861   1.407       .  A
C861        C862   1.396       .  A
C861        H869   1.083       .  S
C862        H870   1.084       .  S
C871        C872   1.407       .  A
C871        C876   1.408       .  A
C872        C873   1.400       .  A
C872        H885   1.083       .  S
C873        C874   1.400       .  A
C873        H886   1.083       .  S
C874        C875   1.395       .  A
C874        C877   1.431       .  S
C875        C876   1.390       .  A
C875        H887   1.084       .  S
C876        H888   1.083       .  S
C877        C878   1.201       .  T
C878        C879   1.431       .  S
C879        C880   1.399       .  A
C879        C884   1.398       .  A
C880        C881   1.395       .  A
C880        H889   1.084       .  S
C881        C882   1.404       .  A
C881        H890   1.083       .  S
C882        C883   1.405       .  A
C883        C884   1.394       .  A
C883        H891   1.083       .  S
C884        H892   1.084       .  S
C893        C894   1.410       .  A
C893        C898   1.411       .  A
C894        C895   1.405       .  A
C894        H907   1.083       .  S
C895        C896   1.403       .  A
C895        H908   1.083       .  S
C896        C897   1.401       .  A
C896        C899   1.453       .  S
C897        C898   1.403       .  A
C897        H909   1.083       .  S
C898        H910   1.083       .  S
C899        C900   1.214       .  T
C900        C901   1.453       .  S
C901        C902   1.400       .  A
C901        C906   1.406       .  A
C902        C903   1.399       .  A
C902        H911   1.084       .  S
C903        C904   1.407       .  A
C903        H912   1.083       .  S
C904        C905   1.406       .  A
C905        C906   1.408       .  A
C905        H913   1.083       .  S
C906        H914   1.083       .  S
C915        C916   1.413       .  A
C915        C920   1.409       .  A
C916        C917   1.401       .  A
C916        H929   1.083       .  S
C917        C918   1.399       .  A
C917        H930   1.084       .  S
C918        C919   1.406       .  A
C918        C921   1.456       .  S
C919        C920   1.409       .  A
C919        H931   1.083       .  S
C920        H932   1.083       .  S
C921        C922   1.216       .  T
C922        C923   1.456       .  S
C923        C924   1.407       .  A
C923        C928   1.400       .  A
C924        C925   1.410       .  A
C924        H933   1.083       .  S
C925        C926   1.407       .  A
C925        H934   1.083       .  S
C926        C927   1.408       .  A
C927        C928   1.400       .  A
C927        H935   1.083       .  S
C928        H936   1.083       .  S
C937        C938   1.408       .  A
C937        C942   1.407       .  A
C938        C939   1.403       .  A
C938        H951   1.083       .  S
C939        C940   1.401       .  A
C939        H952   1.083       .  S
C940        C941   1.403       .  A
C940        C943   1.452       .  S
C941        C942   1.404       .  A
C941        H953   1.083       .  S
C942        H954   1.083       .  S
C943        C944   1.213       .  T
C944        C945   1.452       .  S
C945        C946   1.404       .  A
C945        C950   1.399       .  A
C946        C947   1.405       .  A
C946        H955   1.083       .  S
C947        C948   1.408       .  A
C947        H956   1.083       .  S
C948        C949   1.411       .  A
C949        C950   1.400       .  A
C949        H957   1.083       .  S
C950        H958   1.083       .  S
C959        C960   1.407       .  A
C959        C964   1.410       .  A
C960        C961   1.404       .  A
C960        H973   1.083       .  S
C961        C962   1.403       .  A
C961        H974   1.083       .  S
C962        C963   1.398       .  A
C962        C965   1.446       .  S
C963        C964   1.398       .  A
C963        H975   1.084       .  S
C964        H976   1.083       .  S
C965        C966   1.210       .  T
C966        C967   1.446       .  S
C967        C968   1.401       .  A
C967        C972   1.403       .  A
C968        C969   1.399       .  A
C968        H977   1.083       .  S
C969        C970   1.405       .  A
C969        H978   1.083       .  S
C970        C971   1.404       .  A
C971        C972   1.403       .  A
C971        H979   1.083       .  S
C972        H980   1.083       .  S
C981        C982   1.412       .  A
C981        C986   1.408       .  A
C982        C983   1.401       .  A
C982        H995   1.083       .  S
C983        C984   1.399       .  A
C983        H996   1.083       .  S
C984        C985   1.403       .  A
C984        C987   1.450       .  S
C985        C986   1.404       .  A
C985        H997   1.083       .  S
C986        H998   1.083       .  S
C987        C988   1.212       .  T
C988        C989   1.450       .  S
C989        C990   1.402       .  A
C989        C994   1.403       .  A
C990        C991   1.402       .  A
C990        H999   1.083       .  S
C991        C992   1.405       .  A
C991       H1000   1.083       .  S
C992        C993   1.404       .  A
C993        C994   1.403       .  A
C993       H1001   1.083   1_556  S
C994       H1002   1.083   1_556  S
C1003      C1004   1.413       .  A
C1003      C1008   1.409       .  A
C1004      C1005   1.401       .  A
C1004      H1017   1.083       .  S
C1005      C1006   1.399       .  A
C1005      H1018   1.084       .  S
C1006      C1007   1.405       .  A
C1006      C1009   1.454       .  S
C1007      C1008   1.407       .  A
C1007      H1019   1.083       .  S
C1008      H1020   1.083       .  S
C1009      C1010   1.215       .  T
C1010      C1011   1.455       .  S
C1011      C1012   1.404       .  A
C1011      C1016   1.402       .  A
C1012      C1013   1.406       .  A
C1012      H1021   1.083       .  S
C1013      C1014   1.407       .  A
C1013      H1022   1.083       .  S
C1014      C1015   1.407       .  A
C1015      C1016   1.403       .  A
C1015      H1023   1.083   1_556  S
C1016      H1024   1.083   1_556  S
C1025      C1026   1.408       .  A
C1025      C1030   1.406       .  A
C1026      C1027   1.402       .  A
C1026      H1039   1.083   1_556  S
C1027      C1028   1.402       .  A
C1027      H1040   1.084       .  S
C1028      C1029   1.403       .  A
C1028      C1031   1.454       .  S
C1029      C1030   1.406       .  A
C1029      H1041   1.083       .  S
C1030      H1042   1.083       .  S
C1031      C1032   1.214       .  T
C1032      C1033   1.453       .  S
C1033      C1034   1.405       .  A
C1033      C1038   1.398       .  A
C1034      C1035   1.409       .  A
C1034      H1043   1.083       .  S
C1035      C1036   1.410       .  A
C1035      H1044   1.083       .  S
C1036      C1037   1.412       .  A
C1037      C1038   1.399       .  A
C1037      H1045   1.083       .  S
C1038      H1046   1.084       .  S
C1047      C1048   1.409       .  A
C1047      C1052   1.412       .  A
C1048      C1049   1.409       .  A
C1048      H1061   1.083       .  S
C1049      C1050   1.406       .  A
C1049      H1062   1.083       .  S
C1050      C1051   1.396       .  A
C1050      C1053   1.450       .  S
C1051      C1052   1.396       .  A
C1051      H1063   1.084       .  S
C1052      H1064   1.083       .  S
C1053      C1054   1.212       .  T
C1054      C1055   1.450       .  S
C1055      C1056   1.403       .  A
C1055      C1060   1.401   1_556  A
C1056      C1057   1.404       .  A
C1056      H1065   1.083       .  S
C1057      C1058   1.405       .  A
C1057      H1066   1.083       .  S
C1058      C1059   1.405   1_556  A
C1059      C1060   1.401       .  A
C1059      H1067   1.083       .  S
C1060      H1068   1.083       .  S
C1069      C1070   1.408       .  A
C1069      C1074   1.407       .  A
C1070      C1071   1.396       .  A
C1070      H1083   1.083       .  S
C1071      C1072   1.398       .  A
C1071      H1084   1.084       .  S
C1072      C1073   1.396       .  A
C1072      C1075   1.429       .  S
C1073      C1074   1.392       .  A
C1073      H1085   1.084       .  S
C1074      H1086   1.083       .  S
C1075      C1076   1.200       .  T
C1076      C1077   1.429       .  S
C1077      C1078   1.401       .  A
C1077      C1082   1.395       .  A
C1078      C1079   1.400       .  A
C1078      H1087   1.083       .  S
C1079      C1080   1.405       .  A
C1079      H1088   1.083       .  S
C1080      C1081   1.405       .  A
C1081      C1082   1.389       .  A
C1081      H1089   1.083       .  S
C1082      H1090   1.084       .  S
C1091      C1092   1.412       .  A
C1091      C1096   1.411       .  A
C1092      C1093   1.390       .  A
C1092      H1105   1.080       .  S
C1093      C1094   1.394       .  A
C1093      H1106   1.084       .  S
C1094      C1095   1.399       .  A
C1094      C1097   1.431       .  S
C1095      C1096   1.400       .  A
C1095      H1107   1.083       .  S
C1096      H1108   1.082       .  S
C1097      C1098   1.201       .  T
C1098      C1099   1.432       .  S
C1099      C1100   1.398       .  A
C1099      C1104   1.398       .  A
C1100      C1101   1.394       .  A
C1100      H1109   1.084       .  S
C1101      C1102   1.406       .  A
C1101      H1110   1.083       .  S
C1102      C1103   1.409       .  A
C1103      C1104   1.397       .  A
C1103      H1111   1.083       .  S
C1104      H1112   1.084       .  S
C1113      C1114   1.405       .  A
C1113      C1118   1.405       .  A
C1114      C1115   1.397       .  A
C1114      H1127   1.083       .  S
C1115      C1116   1.400       .  A
C1115      H1128   1.083       .  S
C1116      C1117   1.397       .  A
C1116      C1119   1.430       .  S
C1117      C1118   1.392       .  A
C1117      H1129   1.084       .  S
C1118      H1130   1.083       .  S
C1119      C1120   1.200       .  T
C1120      C1121   1.430       .  S
C1121      C1122   1.399       .  A
C1121      C1126   1.397       .  A
C1122      C1123   1.396       .  A
C1122      H1131   1.084       .  S
C1123      C1124   1.404       .  A
C1123      H1132   1.083       .  S
C1124      C1125   1.406       .  A
C1125      C1126   1.393       .  A
C1125      H1133   1.083       .  S
C1126      H1134   1.084       .  S
C1135      C1136   1.409       .  A
C1135      C1140   1.407       .  A
C1136      C1137   1.397       .  A
C1136      H1149   1.083       .  S
C1137      C1138   1.398       .  A
C1137      H1150   1.084       .  S
C1138      C1139   1.399       .  A
C1138      C1141   1.435       .  S
C1139      C1140   1.396       .  A
C1139      H1151   1.084       .  S
C1140      H1152   1.083       .  S
C1141      C1142   1.203       .  T
C1142      C1143   1.434       .  S
C1143      C1144   1.397       .  A
C1143      C1148   1.400       .  A
C1144      C1145   1.393       .  A
C1144      H1153   1.084       .  S
C1145      C1146   1.406       .  A
C1145      H1154   1.083       .  S
C1146      C1147   1.407       .  A
C1147      C1148   1.399       .  A
C1147      H1155   1.083       .  S
C1148      H1156   1.083       .  S
C1157      C1158   1.409       .  A
C1157      C1162   1.412       .  A
C1158      C1159   1.407       .  A
C1158      H1171   1.083       .  S
C1159      C1160   1.404       .  A
C1159      H1172   1.083       .  S
C1160      C1161   1.398       .  A
C1160      C1163   1.451       .  S
C1161      C1162   1.399       .  A
C1161      H1173   1.084       .  S
C1162      H1174   1.083       .  S
C1163      C1164   1.212       .  T
C1164      C1165   1.450       .  S
C1165      C1166   1.404       .  A
C1165      C1170   1.401       .  A
C1166      C1167   1.404       .  A
C1166      H1175   1.083   1_565  S
C1167      C1168   1.404       .  A
C1167      H1176   1.083   1_565  S
C1168      C1169   1.406       .  A
C1169      C1170   1.400       .  A
C1169      H1177   1.083       .  S
C1170      H1178   1.083       .  S
C1179      C1180   1.408       .  A
C1179      C1184   1.405       .  A
C1180      C1181   1.401       .  A
C1180      H1193   1.083       .  S
C1181      C1182   1.400       .  A
C1181      H1194   1.083       .  S
C1182      C1183   1.405       .  A
C1182      C1185   1.453       .  S
C1183      C1184   1.407       .  A
C1183      H1195   1.083       .  S
C1184      H1196   1.083       .  S
C1185      C1186   1.214       .  T
C1186      C1187   1.453       .  S
C1187      C1188   1.405       .  A
C1187      C1192   1.398       .  A
C1188      C1189   1.409       .  A
C1188      H1197   1.083       .  S
C1189      C1190   1.409       .  A
C1189      H1198   1.083       .  S
C1190      C1191   1.412       .  A
C1191      C1192   1.399       .  A
C1191      H1199   1.083       .  S
C1192      H1200   1.084       .  S
C1201      C1202   1.406       .  A
C1201      C1206   1.406   1_565  A
C1202      C1203   1.401       .  A
C1202      H1215   1.083       .  S
C1203      C1204   1.401       .  A
C1203      H1216   1.084       .  S
C1204      C1205   1.402   1_565  A
C1204      C1207   1.448       .  S
C1205      C1206   1.403       .  A
C1205      H1217   1.083       .  S
C1206      H1218   1.083       .  S
C1207      C1208   1.211       .  T
C1208      C1209   1.447       .  S
C1209      C1210   1.399       .  A
C1209      C1214   1.402       .  A
C1210      C1211   1.399       .  A
C1210      H1219   1.083       .  S
C1211      C1212   1.410       .  A
C1211      H1220   1.083       .  S
C1212      C1213   1.407       .  A
C1213      C1214   1.402       .  A
C1213      H1221   1.083       .  S
C1214      H1222   1.083       .  S
C1223      C1224   1.407       .  A
C1223      C1228   1.409       .  A
C1224      C1225   1.404       .  A
C1224      H1237   1.083       .  S
C1225      C1226   1.404       .  A
C1225      H1238   1.083       .  S
C1226      C1227   1.398       .  A
C1226      C1229   1.446       .  S
C1227      C1228   1.397       .  A
C1227      H1239   1.084       .  S
C1228      H1240   1.083       .  S
C1229      C1230   1.210       .  T
C1230      C1231   1.446       .  S
C1231      C1232   1.401       .  A
C1231      C1236   1.402       .  A
C1232      C1233   1.400       .  A
C1232      H1241   1.083       .  S
C1233      C1234   1.405       .  A
C1233      H1242   1.083       .  S
C1234      C1235   1.404       .  A
C1235      C1236   1.402       .  A
C1235      H1243   1.083       .  S
C1236      H1244   1.083       .  S
C1245      C1246   1.409       .  A
C1245      C1250   1.406       .  A
C1246      C1247   1.404       .  A
C1246      H1259   1.083       .  S
C1247      C1248   1.403       .  A
C1247      H1260   1.083       .  S
C1248      C1249   1.406       .  A
C1248      C1251   1.460       .  S
C1249      C1250   1.409       .  A
C1249      H1261   1.083       .  S
C1250      H1262   1.083       .  S
C1251      C1252   1.219       .  T
C1252      C1253   1.461       .  S
C1253      C1254   1.405       .  A
C1253      C1258   1.402       .  A
C1254      C1255   1.408       .  A
C1254      H1263   1.083       .  S
C1255      C1256   1.410       .  A
C1255      H1264   1.083       .  S
C1256      C1257   1.412       .  A
C1257      C1258   1.406       .  A
C1257      H1265   1.083       .  S
C1258      H1266   1.083       .  S
C1267      C1268   1.406       .  A
C1267      C1272   1.406       .  A
C1268      C1269   1.403       .  A
C1268      H1281   1.083       .  S
C1269      C1270   1.402       .  A
C1269      H1282   1.083       .  S
C1270      C1271   1.402       .  A
C1270      C1273   1.452       .  S
C1271      C1272   1.403       .  A
C1271      H1283   1.083       .  S
C1272      H1284   1.083       .  S
C1273      C1274   1.213       .  T
C1274      C1275   1.452       .  S
C1275      C1276   1.405       .  A
C1275      C1280   1.397       .  A
C1276      C1277   1.408       .  A
C1276      H1285   1.083       .  S
C1277      C1278   1.410       .  A
C1277      H1286   1.083       .  S
C1278      C1279   1.412       .  A
C1279      C1280   1.399       .  A
C1279      H1287   1.083       .  S
C1280      H1288   1.084       .  S
C1289      C1290   1.411       .  A
C1289      C1294   1.410       .  A
C1290      C1291   1.400       .  A
C1290      H1303   1.083       .  S
C1291      C1292   1.399       .  A
C1291      H1304   1.084       .  S
C1292      C1293   1.405       .  A
C1292      C1295   1.455       .  S
C1293      C1294   1.408       .  A
C1293      H1305   1.083       .  S
C1294      H1306   1.083       .  S
C1295      C1296   1.215       .  T
C1296      C1297   1.455       .  S
C1297      C1298   1.402       .  A
C1297      C1302   1.404       .  A
C1298      C1299   1.402       .  A
C1298      H1307   1.083       .  S
C1299      C1300   1.407       .  A
C1299      H1308   1.083       .  S
C1300      C1301   1.408       .  A
C1301      C1302   1.407       .  A
C1301      H1309   1.083       .  S
C1302      H1310   1.083       .  S
C1311      C1312   1.408       .  A
C1311      C1316   1.408       .  A
C1312      C1313   1.396       .  A
C1312      H1325   1.083       .  S
C1313      C1314   1.398       .  A
C1313      H1326   1.083       .  S
C1314      C1315   1.396       .  A
C1314      C1317   1.430       .  S
C1315      C1316   1.392       .  A
C1315      H1327   1.084       .  S
C1316      H1328   1.083       .  S
C1317      C1318   1.200       .  T
C1318      C1319   1.430       .  S
C1319      C1320   1.399       .  A
C1319      C1324   1.398       .  A
C1320      C1321   1.395       .  A
C1320      H1329   1.084   1_565  S
C1321      C1322   1.405       .  A
C1321      H1330   1.083   1_565  S
C1322      C1323   1.404       .  A
C1323      C1324   1.395       .  A
C1323      H1331   1.083       .  S
C1324      H1332   1.084       .  S
C1333      C1334   1.410       .  A
C1333      C1338   1.407       .  A
C1334      C1335   1.396       .  A
C1334      H1347   1.083       .  S
C1335      C1336   1.398       .  A
C1335      H1348   1.084       .  S
C1336      C1337   1.398       .  A
C1336      C1339   1.432       .  S
C1337      C1338   1.395       .  A
C1337      H1349   1.084       .  S
C1338      H1350   1.083       .  S
C1339      C1340   1.201       .  T
C1340      C1341   1.430       .  S
C1341      C1342   1.397       .  A
C1341      C1346   1.399       .  A
C1342      C1343   1.390       .  A
C1342      H1351   1.084       .  S
C1343      C1344   1.407       .  A
C1343      H1352   1.083       .  S
C1344      C1345   1.407       .  A
C1345      C1346   1.399       .  A
C1345      H1353   1.083       .  S
C1346      H1354   1.083       .  S
C1355      C1356   1.408       .  A
C1355      C1360   1.406       .  A
C1356      C1357   1.397       .  A
C1356      H1369   1.083       .  S
C1357      C1358   1.398       .  A
C1357      H1370   1.083       .  S
C1358      C1359   1.395       .  A
C1358      C1361   1.425       .  S
C1359      C1360   1.387       .  A
C1359      H1371   1.084       .  S
C1360      H1372   1.083       .  S
C1361      C1362   1.197       .  T
C1362      C1363   1.426       .  S
C1363      C1364   1.398       .  A
C1363      C1368   1.396       .  A
C1364      C1365   1.391       .  A
C1364      H1373   1.084       .  S
C1365      C1366   1.404       .  A
C1365      H1374   1.083       .  S
C1366      C1367   1.408       .  A
C1367      C1368   1.396       .  A
C1367      H1375   1.083       .  S
C1368      H1376   1.083       .  S
C1377      C1378   1.405       .  A
C1377      C1382   1.406       .  A
C1378      C1379   1.402       .  A
C1378      H1391   1.083   1_565  S
C1379      C1380   1.402       .  A
C1379      H1392   1.083   1_565  S
C1380      C1381   1.402       .  A
C1380      C1383   1.449       .  S
C1381      C1382   1.403       .  A
C1381      H1393   1.083       .  S
C1382      H1394   1.083       .  S
C1383      C1384   1.212       .  T
C1384      C1385   1.449       .  S
C1385      C1386   1.403       .  A
C1385      C1390   1.399       .  A
C1386      C1387   1.404       .  A
C1386      H1395   1.083       .  S
C1387      C1388   1.409       .  A
C1387      H1396   1.083       .  S
C1388      C1389   1.410       .  A
C1389      C1390   1.400       .  A
C1389      H1397   1.083       .  S
C1390      H1398   1.083       .  S
C1399      C1400   1.403       .  A
C1399      C1404   1.406       .  A
C1400      C1401   1.393       .  A
C1400      H1413   1.083       .  S
C1401      C1402   1.399       .  A
C1401      H1414   1.084       .  S
C1402      C1403   1.398       .  A
C1402      C1405   1.429       .  S
C1403      C1404   1.395       .  A
C1403      H1415   1.084       .  S
C1404      H1416   1.083       .  S
C1405      C1406   1.200       .  T
C1406      C1407   1.430       .  S
C1407      C1408   1.400       .  A
C1407      C1412   1.394       .  A
C1408      C1409   1.399       .  A
C1408      H1417   1.083       .  S
C1409      C1410   1.406       .  A
C1409      H1418   1.083       .  S
C1410      C1411   1.410       .  A
C1411      C1412   1.390       .  A
C1411      H1419   1.083       .  S
C1412      H1420   1.084       .  S
C1421      C1422   1.406       .  A
C1421      C1426   1.407       .  A
C1422      C1423   1.407       .  A
C1422      H1435   1.083       .  S
C1423      C1424   1.405       .  A
C1423      H1436   1.083       .  S
C1424      C1425   1.401       .  A
C1424      C1427   1.452       .  S
C1425      C1426   1.400       .  A
C1425      H1437   1.083       .  S
C1426      H1438   1.083       .  S
C1427      C1428   1.214       .  T
C1428      C1429   1.452       .  S
C1429      C1430   1.402       .  A
C1429      C1434   1.401       .  A
C1430      C1431   1.404       .  A
C1430      H1439   1.083       .  S
C1431      C1432   1.410       .  A
C1431      H1440   1.083       .  S
C1432      C1433   1.410       .  A
C1433      C1434   1.403       .  A
C1433      H1441   1.083       .  S
C1434      H1442   1.083       .  S
C1443      C1444   1.410       .  A
C1443      C1448   1.412       .  A
C1444      C1445   1.410       .  A
C1444      H1457   1.083       .  S
C1445      C1446   1.407       .  A
C1445      H1458   1.083       .  S
C1446      C1447   1.397       .  A
C1446      C1449   1.454       .  S
C1447      C1448   1.398       .  A
C1447      H1459   1.084       .  S
C1448      H1460   1.083       .  S
C1449      C1450   1.215       .  T
C1450      C1451   1.454       .  S
C1451      C1452   1.403       .  A
C1451      C1456   1.403       .  A
C1452      C1453   1.403       .  A
C1452      H1461   1.083       .  S
C1453      C1454   1.408       .  A
C1453      H1462   1.083       .  S
C1454      C1455   1.405       .  A
C1455      C1456   1.404       .  A
C1455      H1463   1.083       .  S
C1456      H1464   1.083       .  S
C1465      C1466   1.413       .  A
C1465      C1470   1.409       .  A
C1466      C1467   1.399       .  A
C1466      H1479   1.083       .  S
C1467      C1468   1.398       .  A
C1467      H1480   1.084       .  S
C1468      C1469   1.406       .  A
C1468      C1471   1.455       .  S
C1469      C1470   1.409       .  A
C1469      H1481   1.083       .  S
C1470      H1482   1.083       .  S
C1471      C1472   1.215       .  T
C1472      C1473   1.455       .  S
C1473      C1474   1.403       .  A
C1473      C1478   1.402       .  A
C1474      C1475   1.405       .  A
C1474      H1483   1.083       .  S
C1475      C1476   1.407       .  A
C1475      H1484   1.083       .  S
C1476      C1477   1.408       .  A
C1477      C1478   1.404       .  A
C1477      H1485   1.083       .  S
C1478      H1486   1.083       .  S
C1487      C1488   1.406       .  A
C1487      C1492   1.406       .  A
C1488      C1489   1.404       .  A
C1488      H1501   1.083       .  S
C1489      C1490   1.403       .  A
C1489      H1502   1.083       .  S
C1490      C1491   1.405       .  A
C1490      C1493   1.457       .  S
C1491      C1492   1.406       .  A
C1491      H1503   1.083       .  S
C1492      H1504   1.083       .  S
C1493      C1494   1.216       .  T
C1494      C1495   1.457       .  S
C1495      C1496   1.401       .  A
C1495      C1500   1.404       .  A
C1496      C1497   1.404       .  A
C1496      H1505   1.083       .  S
C1497      C1498   1.413       .  A
C1497      H1506   1.083       .  S
C1498      C1499   1.409       .  A
C1499      C1500   1.406       .  A
C1499      H1507   1.083       .  S
C1500      H1508   1.083       .  S
C1509      C1510   1.408       .  A
C1509      C1514   1.407       .  A
C1510      C1511   1.402       .  A
C1510      H1523   1.083   1_565  S
C1511      C1512   1.402       .  A
C1511      H1524   1.083   1_565  S
C1512      C1513   1.404       .  A
C1512      C1515   1.456       .  S
C1513      C1514   1.407       .  A
C1513      H1525   1.083       .  S
C1514      H1526   1.083       .  S
C1515      C1516   1.216       .  T
C1516      C1517   1.457       .  S
C1517      C1518   1.405       .  A
C1517      C1522   1.401       .  A
C1518      C1519   1.409       .  A
C1518      H1527   1.083       .  S
C1519      C1520   1.411       .  A
C1519      H1528   1.083       .  S
C1520      C1521   1.409       .  A
C1521      C1522   1.402       .  A
C1521      H1529   1.083       .  S
C1522      H1530   1.083       .  S
C1531      C1532   1.412       .  A
C1531      C1536   1.410       .  A
C1532      C1533   1.402       .  A
C1532      H1545   1.083       .  S
C1533      C1534   1.400       .  A
C1533      H1546   1.084       .  S
C1534      C1535   1.405       .  A
C1534      C1537   1.457       .  S
C1535      C1536   1.409       .  A
C1535      H1547   1.083       .  S
C1536      H1548   1.083       .  S
C1537      C1538   1.216       .  T
C1538      C1539   1.456       .  S
C1539      C1540   1.405       .  A
C1539      C1544   1.403   1_565  A
C1540      C1541   1.406       .  A
C1540      H1549   1.083       .  S
C1541      C1542   1.405       .  A
C1541      H1550   1.083       .  S
C1542      C1543   1.407   1_565  A
C1543      C1544   1.403       .  A
C1543      H1551   1.083       .  S
C1544      H1552   1.083       .  S
C1553      C1554   1.409       .  A
C1553      C1558   1.411       .  A
C1554      C1555   1.404       .  A
C1554      H1567   1.083       .  S
C1555      C1556   1.403       .  A
C1555      H1568   1.083       .  S
C1556      C1557   1.399       .  A
C1556      C1559   1.449       .  S
C1557      C1558   1.400       .  A
C1557      H1569   1.083       .  S
C1558      H1570   1.083       .  S
C1559      C1560   1.212       .  T
C1560      C1561   1.449       .  S
C1561      C1562   1.403       .  A
C1561      C1566   1.401   1_565  A
C1562      C1563   1.404       .  A
C1562      H1571   1.083       .  S
C1563      C1564   1.405       .  A
C1563      H1572   1.083       .  S
C1564      C1565   1.405       .  A
C1565      C1566   1.400   1_565  A
C1565      H1573   1.083   1_565  S
C1566      H1574   1.083       .  S
C1575      C1576   1.406       .  A
C1575      C1580   1.406       .  A
C1576      C1577   1.399       .  A
C1576      H1589   1.083       .  S
C1577      C1578   1.400       .  A
C1577      H1590   1.083       .  S
C1578      C1579   1.404       .  A
C1578      C1581   1.449       .  S
C1579      C1580   1.406       .  A
C1579      H1591   1.083   1_565  S
C1580      H1592   1.083   1_565  S
C1581      C1582   1.212       .  T
C1582      C1583   1.449       .  S
C1583      C1584   1.396       .  A
C1583      C1588   1.405       .  A
C1584      C1585   1.396       .  A
C1584      H1593   1.084       .  S
C1585      C1586   1.412       .  A
C1585      H1594   1.083       .  S
C1586      C1587   1.408       .  A
C1587      C1588   1.407       .  A
C1587      H1595   1.083       .  S
C1588      H1596   1.083       .  S
C1597      C1598   1.407       .  A
C1597      C1602   1.408       .  A
C1598      C1599   1.396       .  A
C1598      H1611   1.083       .  S
C1599      C1600   1.399       .  A
C1599      H1612   1.084       .  S
C1600      C1601   1.397       .  A
C1600      C1603   1.432       .  S
C1601      C1602   1.395       .  A
C1601      H1613   1.084       .  S
C1602      H1614   1.083       .  S
C1603      C1604   1.201       .  T
C1604      C1605   1.431       .  S
C1605      C1606   1.401       .  A
C1605      C1610   1.395       .  A
C1606      C1607   1.401       .  A
C1606      H1615   1.083       .  S
C1607      C1608   1.407       .  A
C1607      H1616   1.083       .  S
C1608      C1609   1.407       .  A
C1609      C1610   1.388       .  A
C1609      H1617   1.083       .  S
C1610      H1618   1.084       .  S
C1619      C1620   1.410       .  A
C1619      C1624   1.409       .  A
C1620      C1621   1.398       .  A
C1620      H1633   1.082       .  S
C1621      C1622   1.398       .  A
C1621      H1634   1.083       .  S
C1622      C1623   1.396       .  A
C1622      C1625   1.432       .  S
C1623      C1624   1.392       .  A
C1623      H1635   1.084       .  S
C1624      H1636   1.082       .  S
C1625      C1626   1.202       .  T
C1626      C1627   1.434       .  S
C1627      C1628   1.398       .  A
C1627      C1632   1.399       .  A
C1628      C1629   1.395       .  A
C1628      H1637   1.084       .  S
C1629      C1630   1.408       .  A
C1629      H1638   1.083       .  S
C1630      C1631   1.410       .  A
C1631      C1632   1.399       .  A
C1631      H1639   1.083       .  S
C1632      H1640   1.084       .  S
C1641      C1642   1.406       .  A
C1641      C1646   1.404       .  A
C1642      C1643   1.392       .  A
C1642      H1655   1.083       .  S
C1643      C1644   1.395       .  A
C1643      H1656   1.084       .  S
C1644      C1645   1.398       .  A
C1644      C1647   1.424       .  S
C1645      C1646   1.393       .  A
C1645      H1657   1.084       .  S
C1646      H1658   1.083       .  S
C1647      C1648   1.196       .  T
C1648      C1649   1.423       .  S
C1649      C1650   1.394       .  A
C1649      C1654   1.398       .  A
C1650      C1651   1.387       .  A
C1650      H1659   1.084       .  S
C1651      C1652   1.407       .  A
C1651      H1660   1.083       .  S
C1652      C1653   1.407       .  A
C1653      C1654   1.396       .  A
C1653      H1661   1.083       .  S
C1654      H1662   1.083       .  S
C1663      C1664   1.405       .  A
C1663      C1668   1.405       .  A
C1664      C1665   1.393       .  A
C1664      H1677   1.083       .  S
C1665      C1666   1.398       .  A
C1665      H1678   1.084       .  S
C1666      C1667   1.398       .  A
C1666      C1669   1.429       .  S
C1667      C1668   1.396       .  A
C1667      H1679   1.083       .  S
C1668      H1680   1.083       .  S
C1669      C1670   1.199       .  T
C1670      C1671   1.429       .  S
C1671      C1672   1.397       .  A
C1671      C1676   1.397       .  A
C1672      C1673   1.394       .  A
C1672      H1681   1.084       .  S
C1673      C1674   1.407       .  A
C1673      H1682   1.083       .  S
C1674      C1675   1.408       .  A
C1675      C1676   1.394       .  A
C1675      H1683   1.083       .  S
C1676      H1684   1.084       .  S
C1685      C1686   1.411       .  A
C1685      C1690   1.409       .  A
C1686      C1687   1.404       .  A
C1686      H1699   1.083       .  S
C1687      C1688   1.402       .  A
C1687      H1700   1.083       .  S
C1688      C1689   1.402       .  A
C1688      C1691   1.453       .  S
C1689      C1690   1.403       .  A
C1689      H1701   1.083       .  S
C1690      H1702   1.083       .  S
C1691      C1692   1.214       .  T
C1692      C1693   1.453       .  S
C1693      C1694   1.404       .  A
C1693      C1698   1.401   1_655  A
C1694      C1695   1.406       .  A
C1694      H1703   1.083       .  S
C1695      C1696   1.405       .  A
C1695      H1704   1.083       .  S
C1696      C1697   1.408   1_655  A
C1697      C1698   1.402       .  A
C1697      H1705   1.083       .  S
C1698      H1706   1.083       .  S
C1707      C1708   1.406       .  A
C1707      C1712   1.407       .  A
C1708      C1709   1.405       .  A
C1708      H1721   1.083   1_655  S
C1709      C1710   1.404       .  A
C1709      H1722   1.083   1_655  S
C1710      C1711   1.401       .  A
C1710      C1713   1.451       .  S
C1711      C1712   1.401       .  A
C1711      H1723   1.083       .  S
C1712      H1724   1.083       .  S
C1713      C1714   1.213       .  T
C1714      C1715   1.451       .  S
C1715      C1716   1.398       .  A
C1715      C1720   1.405       .  A
C1716      C1717   1.399       .  A
C1716      H1725   1.084       .  S
C1717      C1718   1.413       .  A
C1717      H1726   1.083       .  S
C1718      C1719   1.408       .  A
C1719      C1720   1.407       .  A
C1719      H1727   1.083       .  S
C1720      H1728   1.083       .  S
C1729      C1730   1.408       .  A
C1729      C1734   1.412       .  A
C1730      C1731   1.404       .  A
C1730      H1743   1.083       .  S
C1731      C1732   1.403       .  A
C1731      H1744   1.083       .  S
C1732      C1733   1.400       .  A
C1732      C1735   1.451       .  S
C1733      C1734   1.401       .  A
C1733      H1745   1.083       .  S
C1734      H1746   1.083       .  S
C1735      C1736   1.213       .  T
C1736      C1737   1.450       .  S
C1737      C1738   1.404   1_655  A
C1737      C1742   1.400       .  A
C1738      C1739   1.405       .  A
C1738      H1747   1.083       .  S
C1739      C1740   1.405   1_455  A
C1739      H1748   1.083       .  S
C1740      C1741   1.407       .  A
C1741      C1742   1.400       .  A
C1741      H1749   1.083       .  S
C1742      H1750   1.084       .  S
C1751      C1752   1.411       .  A
C1751      C1756   1.408       .  A
C1752      C1753   1.400       .  A
C1752      H1765   1.083       .  S
C1753      C1754   1.399       .  A
C1753      H1766   1.083       .  S
C1754      C1755   1.404       .  A
C1754      C1757   1.450       .  S
C1755      C1756   1.405       .  A
C1755      H1767   1.083       .  S
C1756      H1768   1.083       .  S
C1757      C1758   1.212       .  T
C1758      C1759   1.450       .  S
C1759      C1760   1.405       .  A
C1759      C1764   1.400   1_655  A
C1760      C1761   1.407       .  A
C1760      H1769   1.083       .  S
C1761      C1762   1.406   1_655  A
C1761      H1770   1.083       .  S
C1762      C1763   1.407       .  A
C1763      C1764   1.399       .  A
C1763      H1771   1.083       .  S
C1764      H1772   1.084       .  S
C1773      C1774   1.405       .  A
C1773      C1778   1.406   1_655  A
C1774      C1775   1.406       .  A
C1774      H1787   1.083       .  S
C1775      C1776   1.404       .  A
C1775      H1788   1.083       .  S
C1776      C1777   1.402   1_655  A
C1776      C1779   1.454       .  S
C1777      C1778   1.402       .  A
C1777      H1789   1.083       .  S
C1778      H1790   1.083       .  S
C1779      C1780   1.215       .  T
C1780      C1781   1.454       .  S
C1781      C1782   1.405       .  A
C1781      C1786   1.398       .  A
C1782      C1783   1.409       .  A
C1782      H1791   1.083       .  S
C1783      C1784   1.409       .  A
C1783      H1792   1.083       .  S
C1784      C1785   1.413       .  A
C1785      C1786   1.399       .  A
C1785      H1793   1.083       .  S
C1786      H1794   1.084       .  S
C1795      C1796   1.406   1_655  A
C1795      C1800   1.407       .  A
C1796      C1797   1.399       .  A
C1796      H1809   1.083       .  S
C1797      C1798   1.400   1_455  A
C1797      H1810   1.084       .  S
C1798      C1799   1.403       .  A
C1798      C1801   1.448       .  S
C1799      C1800   1.405       .  A
C1799      H1811   1.083       .  S
C1800      H1812   1.083       .  S
C1801      C1802   1.211       .  T
C1802      C1803   1.447       .  S
C1803      C1804   1.404       .  A
C1803      C1808   1.397       .  A
C1804      C1805   1.406       .  A
C1804      H1813   1.083       .  S
C1805      C1806   1.408       .  A
C1805      H1814   1.083       .  S
C1806      C1807   1.411       .  A
C1807      C1808   1.397       .  A
C1807      H1815   1.083       .  S
C1808      H1816   1.084       .  S
C1817      C1818   1.407       .  A
C1817      C1822   1.405       .  A
C1818      C1819   1.403       .  A
C1818      H1831   1.083       .  S
C1819      C1820   1.402       .  A
C1819      H1832   1.083       .  S
C1820      C1821   1.403       .  A
C1820      C1823   1.451       .  S
C1821      C1822   1.403       .  A
C1821      H1833   1.083       .  S
C1822      H1834   1.083       .  S
C1823      C1824   1.213       .  T
C1824      C1825   1.452       .  S
C1825      C1826   1.400       .  A
C1825      C1830   1.403       .  A
C1826      C1827   1.402       .  A
C1826      H1835   1.084       .  S
C1827      C1828   1.412       .  A
C1827      H1836   1.083       .  S
C1828      C1829   1.409       .  A
C1829      C1830   1.404       .  A
C1829      H1837   1.083       .  S
C1830      H1838   1.083       .  S
C1839      C1840   1.406       .  A
C1839      C1844   1.409       .  A
C1840      C1841   1.409       .  A
C1840      H1853   1.083       .  S
C1841      C1842   1.406       .  A
C1841      H1854   1.083       .  S
C1842      C1843   1.400       .  A
C1842      C1845   1.454       .  S
C1843      C1844   1.400       .  A
C1843      H1855   1.084       .  S
C1844      H1856   1.083       .  S
C1845      C1846   1.215       .  T
C1846      C1847   1.454       .  S
C1847      C1848   1.403       .  A
C1847      C1852   1.401       .  A
C1848      C1849   1.404       .  A
C1848      H1857   1.083       .  S
C1849      C1850   1.410       .  A
C1849      H1858   1.083       .  S
C1850      C1851   1.410       .  A
C1851      C1852   1.403       .  A
C1851      H1859   1.083       .  S
C1852      H1860   1.083       .  S
C1861      C1862   1.406       .  A
C1861      C1866   1.406       .  A
C1862      C1863   1.405       .  A
C1862      H1875   1.083       .  S
C1863      C1864   1.403       .  A
C1863      H1876   1.083       .  S
C1864      C1865   1.402       .  A
C1864      C1867   1.452       .  S
C1865      C1866   1.403       .  A
C1865      H1877   1.083       .  S
C1866      H1878   1.083       .  S
C1867      C1868   1.213       .  T
C1868      C1869   1.451       .  S
C1869      C1870   1.404       .  A
C1869      C1874   1.399       .  A
C1870      C1871   1.406       .  A
C1870      H1879   1.083       .  S
C1871      C1872   1.407       .  A
C1871      H1880   1.083       .  S
C1872      C1873   1.413       .  A
C1873      C1874   1.399       .  A
C1873      H1881   1.083       .  S
C1874      H1882   1.084       .  S
C1883      C1884   1.406       .  A
C1883      C1888   1.405       .  A
C1884      C1885   1.403       .  A
C1884      H1897   1.083       .  S
C1885      C1886   1.402       .  A
C1885      H1898   1.083       .  S
C1886      C1887   1.403       .  A
C1886      C1889   1.450       .  S
C1887      C1888   1.403       .  A
C1887      H1899   1.083       .  S
C1888      H1900   1.083       .  S
C1889      C1890   1.212       .  T
C1890      C1891   1.450       .  S
C1891      C1892   1.396       .  A
C1891      C1896   1.406       .  A
C1892      C1893   1.395       .  A
C1892      H1901   1.084       .  S
C1893      C1894   1.411       .  A
C1893      H1902   1.083       .  S
C1894      C1895   1.409       .  A
C1895      C1896   1.408       .  A
C1895      H1903   1.083       .  S
C1896      H1904   1.083       .  S
C1905      C1906   1.406       .  A
C1905      C1910   1.405       .  A
C1906      C1907   1.403       .  A
C1906      H1919   1.083       .  S
C1907      C1908   1.403       .  A
C1907      H1920   1.083       .  S
C1908      C1909   1.402       .  A
C1908      C1911   1.451       .  S
C1909      C1910   1.402       .  A
C1909      H1921   1.083       .  S
C1910      H1922   1.083       .  S
C1911      C1912   1.213       .  T
C1912      C1913   1.451       .  S
C1913      C1914   1.399       .  A
C1913      C1918   1.404       .  A
C1914      C1915   1.399       .  A
C1914      H1923   1.083       .  S
C1915      C1916   1.410       .  A
C1915      H1924   1.083       .  S
C1916      C1917   1.410       .  A
C1917      C1918   1.406       .  A
C1917      H1925   1.083       .  S
C1918      H1926   1.083       .  S
C1927      C1928   1.409       .  A
C1927      C1932   1.411       .  A
C1928      C1929   1.404       .  A
C1928      H1941   1.083       .  S
C1929      C1930   1.403       .  A
C1929      H1942   1.083       .  S
C1930      C1931   1.400       .  A
C1930      C1933   1.451       .  S
C1931      C1932   1.401       .  A
C1931      H1943   1.083       .  S
C1932      H1944   1.083       .  S
C1933      C1934   1.213       .  T
C1934      C1935   1.451       .  S
C1935      C1936   1.402       .  A
C1935      C1940   1.403       .  A
C1936      C1937   1.402       .  A
C1936      H1945   1.083       .  S
C1937      C1938   1.404       .  A
C1937      H1946   1.083       .  S
C1938      C1939   1.406       .  A
C1939      C1940   1.403       .  A
C1939      H1947   1.083       .  S
C1940      H1948   1.083       .  S
C1949      C1950   1.407       .  A
C1949      C1954   1.405       .  A
C1950      C1951   1.401       .  A
C1950      H1963   1.083       .  S
C1951      C1952   1.401       .  A
C1951      H1964   1.083       .  S
C1952      C1953   1.404       .  A
C1952      C1955   1.453       .  S
C1953      C1954   1.406       .  A
C1953      H1965   1.083       .  S
C1954      H1966   1.083       .  S
C1955      C1956   1.214       .  T
C1956      C1957   1.454       .  S
C1957      C1958   1.398       .  A
C1957      C1962   1.406       .  A
C1958      C1959   1.399       .  A
C1958      H1967   1.084       .  S
C1959      C1960   1.413       .  A
C1959      H1968   1.083       .  S
C1960      C1961   1.408       .  A
C1961      C1962   1.408       .  A
C1961      H1969   1.083       .  S
C1962      H1970   1.083       .  S
C1971      C1972   1.409       .  A
C1971      C1976   1.413       .  A
C1972      C1973   1.409       .  A
C1972      H1985   1.083       .  S
C1973      C1974   1.405       .  A
C1973      H1986   1.083       .  S
C1974      C1975   1.401       .  A
C1974      C1977   1.458       .  S
C1975      C1976   1.403       .  A
C1975      H1987   1.084       .  S
C1976      H1988   1.083       .  S
C1977      C1978   1.217       .  T
C1978      C1979   1.458       .  S
C1979      C1980   1.406       .  A
C1979      C1984   1.401       .  A
C1980      C1981   1.409       .  A
C1980      H1989   1.083       .  S
C1981      C1982   1.408       .  A
C1981      H1990   1.083       .  S
C1982      C1983   1.408       .  A
C1983      C1984   1.401       .  A
C1983      H1991   1.083       .  S
C1984      H1992   1.083       .  S
C1993      C1994   1.409       .  A
C1993      C1998   1.406       .  A
C1994      C1995   1.392       .  A
C1994      H2007   1.083       .  S
C1995      C1996   1.395       .  A
C1995      H2008   1.084       .  S
C1996      C1997   1.399       .  A
C1996      C1999   1.428       .  S
C1997      C1998   1.396       .  A
C1997      H2009   1.084       .  S
C1998      H2010   1.083       .  S
C1999      C2000   1.198       .  T
C2000      C2001   1.427       .  S
C2001      C2002   1.395       .  A
C2001      C2006   1.400       .  A
C2002      C2003   1.388       .  A
C2002      H2011   1.084       .  S
C2003      C2004   1.406       .  A
C2003      H2012   1.083   1_455  S
C2004      C2005   1.406       .  A
C2005      C2006   1.399       .  A
C2005      H2013   1.083       .  S
C2006      H2014   1.083       .  S
C2015      C2016   1.405       .  A
C2015      C2020   1.406       .  A
C2016      C2017   1.394       .  A
C2016      H2029   1.083   1_455  S
C2017      C2018   1.399       .  A
C2017      H2030   1.084       .  S
C2018      C2019   1.398       .  A
C2018      C2021   1.433       .  S
C2019      C2020   1.397       .  A
C2019      H2031   1.083       .  S
C2020      H2032   1.083       .  S
C2021      C2022   1.202       .  T
C2022      C2023   1.432       .  S
C2023      C2024   1.397       .  A
C2023      C2028   1.398       .  A
C2024      C2025   1.396       .  A
C2024      H2033   1.084       .  S
C2025      C2026   1.410       .  A
C2025      H2034   1.083       .  S
C2026      C2027   1.406       .  A
C2027      C2028   1.394       .  A
C2027      H2035   1.082       .  S
C2028      H2036   1.084       .  S
C2037      C2038   1.410       .  A
C2037      C2042   1.406       .  A
C2038      C2039   1.393       .  A
C2038      H2051   1.083       .  S
C2039      C2040   1.395       .  A
C2039      H2052   1.084       .  S
C2040      C2041   1.402       .  A
C2040      C2043   1.433       .  S
C2041      C2042   1.399       .  A
C2041      H2053   1.084       .  S
C2042      H2054   1.083       .  S
C2043      C2044   1.201       .  T
C2044      C2045   1.431       .  S
C2045      C2046   1.393       .  A
C2045      C2050   1.398       .  A
C2046      C2047   1.390       .  A
C2046      H2055   1.084       .  S
C2047      C2048   1.413       .  A
C2047      H2056   1.079       .  S
C2048      C2049   1.413       .  A
C2049      C2050   1.400       .  A
C2049      H2057   1.081       .  S
C2050      H2058   1.083       .  S
C2059      C2060   1.407       .  A
C2059      C2064   1.410   1_655  A
C2060      C2061   1.404       .  A
C2060      H2073   1.083       .  S
C2061      C2062   1.403       .  A
C2061      H2074   1.083       .  S
C2062      C2063   1.402       .  A
C2062      C2065   1.453       .  S
C2063      C2064   1.403   1_655  A
C2063      H2075   1.083   1_655  S
C2064      H2076   1.083       .  S
C2065      C2066   1.214       .  T
C2066      C2067   1.452       .  S
C2067      C2068   1.402       .  A
C2067      C2072   1.403       .  A
C2068      C2069   1.403       .  A
C2068      H2077   1.083       .  S
C2069      C2070   1.408       .  A
C2069      H2078   1.083       .  S
C2070      C2071   1.404       .  A
C2071      C2072   1.404       .  A
C2071      H2079   1.083   1_655  S
C2072      H2080   1.083   1_655  S
C2081      C2082   1.406       .  A
C2081      C2086   1.408   1_655  A
C2082      C2083   1.409       .  A
C2082      H2095   1.083       .  S
C2083      C2084   1.406       .  A
C2083      H2096   1.083       .  S
C2084      C2085   1.402   1_655  A
C2084      C2087   1.459       .  S
C2085      C2086   1.402       .  A
C2085      H2097   1.083       .  S
C2086      H2098   1.083       .  S
C2087      C2088   1.218       .  T
C2088      C2089   1.460       .  S
C2089      C2090   1.402       .  A
C2089      C2094   1.405       .  A
C2090      C2091   1.405       .  A
C2090      H2099   1.083       .  S
C2091      C2092   1.412       .  A
C2091      H2100   1.083       .  S
C2092      C2093   1.409       .  A
C2093      C2094   1.408       .  A
C2093      H2101   1.083       .  S
C2094      H2102   1.083       .  S
C2103      C2104   1.407       .  A
C2103      C2108   1.408       .  A
C2104      C2105   1.397       .  A
C2104      H2117   1.083       .  S
C2105      C2106   1.399       .  A
C2105      H2118   1.083       .  S
C2106      C2107   1.396       .  A
C2106      C2109   1.431       .  S
C2107      C2108   1.392       .  A
C2107      H2119   1.084       .  S
C2108      H2120   1.083   1_455  S
C2109      C2110   1.201       .  T
C2110      C2111   1.432       .  S
C2111      C2112   1.398   1_455  A
C2111      C2116   1.398       .  A
C2112      C2113   1.395       .  A
C2112      H2121   1.084       .  S
C2113      C2114   1.407       .  A
C2113      H2122   1.083       .  S
C2114      C2115   1.408   1_655  A
C2115      C2116   1.396       .  A
C2115      H2123   1.083       .  S
C2116      H2124   1.084       .  S
