geometry optimzed in LAMMPS
_audit_creation_date              2020-11-30 
_audit_creation_method            'lammps2cif' 
_symmetry_space_group_name_H-M    'P1' 
_symmetry_Int_Tables_number       1 
_symmetry_cell_setting            triclinic 
loop_ 
_symmetry_equiv_pos_as_xyz 
  x,y,z 
_cell_length_a                    50.06306358 
_cell_length_b                    50.2023974481397 
_cell_length_c                    48.89995818444648 
_cell_angle_alpha                 90.7922225481842 
_cell_angle_beta                  89.33853424708995 
_cell_angle_gamma                 90.42029937222333 
loop_ 
_atom_site_label 
_atom_site_type_symbol 
_atom_site_fract_x 
_atom_site_fract_y 
_atom_site_fract_z 
_atom_site_charge 
In1        In  0.27442115  0.40767689  0.77851410     1.36900
C2          C  0.31779981  0.37719781  0.78087911     0.78300
O3          O  0.26982891  0.40260695  0.73308254    -0.60100
O4          O  0.29151426  0.43620483  0.74829329    -0.51000
C5          C  0.22509331  0.38704847  0.78161578     0.71000
O6          O  0.23048939  0.40769393  0.76823051    -0.45900
C7          C  0.27209969  0.44355302  0.81902087     0.75700
O8          O  0.29457870  0.36813332  0.78520676    -0.57700
O9          O  0.26499388  0.44826771  0.79504219    -0.47800
O10         O  0.31879922  0.40169562  0.77598429    -0.54200
C11         C  0.28312289  0.42339322  0.72773866     0.85900
O12         O  0.24489895  0.37682343  0.79314193    -0.56100
O13         O  0.28104953  0.42049777  0.82245928    -0.59400
C14         C  0.45814075  0.26311910  0.74817341    -0.10100
C15         C  0.44406297  0.24352739  0.73383585    -0.04000
C16         C  0.45680321  0.22257588  0.71995531    -0.10100
C17         C  0.48503187  0.22064989  0.72110652     0.10900
C18         C  0.49980253  0.24052242  0.73569492    -0.01900
C19         C  0.48626761  0.26181927  0.74928927     0.10700
C20         C  0.50107306  0.28059893  0.76441271    -0.11900
C21         C  0.52876683  0.27906287  0.76568328    -0.11900
C22         C  0.54282978  0.25897826  0.75146309     0.10700
C23         C  0.52814245  0.23908424  0.73681332    -0.01900
C24         C  0.49892698  0.19981038  0.70791110    -0.12000
C25         C  0.52677842  0.19831149  0.70914031    -0.12000
C26         C  0.54171383  0.21767483  0.72348833     0.10900
C27         C  0.56991826  0.21658789  0.72471199    -0.10100
C28         C  0.58394874  0.23646300  0.73886993    -0.04000
C29         C  0.57110261  0.25763517  0.75211346    -0.10100
H30         H  0.49131150  0.29647797  0.77578642     0.08100
H31         H  0.53889858  0.29361124  0.77839142     0.08100
H32         H  0.48833510  0.18452518  0.69647911     0.08300
H33         H  0.53658740  0.18191251  0.69861137     0.08300
H34         H  0.42242695  0.24469551  0.73345389     0.04700
H35         H  0.60558808  0.23540736  0.73954070     0.04700
C36         C  0.06903216  0.24524625  0.74001526    -0.10100
C37         C  0.08331597  0.26750549  0.74927425    -0.04000
C38         C  0.07067279  0.28947084  0.76139850    -0.10100
C39         C  0.04247363  0.28971278  0.76393050     0.10900
C40         C  0.02753774  0.26722181  0.75463386    -0.01900
C41         C  0.04086936  0.24479182  0.74284888     0.10700
C42         C  0.02565629  0.22293415  0.73357335    -0.11900
C43         C  0.99792803  0.22287201  0.73594619    -0.11900
C44         C  0.98432521  0.24470848  0.74759297     0.10700
C45         C  0.99920326  0.26720330  0.75695285    -0.01900
C46         C  0.02884041  0.31151752  0.77570788    -0.12000
C47         C  0.00095201  0.31160176  0.77772947    -0.12000
C48         C  0.98576267  0.28977829  0.76827413     0.10900
C49         C  0.95747859  0.28963085  0.76985092    -0.10100
C50         C  0.94330918  0.26750457  0.76004523    -0.04000
C51         C  0.95615110  0.24512292  0.74929417    -0.10100
H52         H  0.03501693  0.20577940  0.72400782     0.08100
H53         H  0.98723858  0.20566695  0.72806635     0.08100
H54         H  0.03966668  0.32879483  0.78327828     0.08300
H55         H  0.99132230  0.32892032  0.78672031     0.08300
H56         H  0.10494669  0.26758950  0.74736806     0.04700
H57         H  0.92162412  0.26764537  0.76097552     0.04700
In58       In  0.25462937  0.10425790  0.70311899     1.36900
C59         C  0.30325328  0.12600955  0.69646104     0.78300
O60         O  0.24644220  0.07500042  0.73637379    -0.60100
O61         O  0.26067615  0.11357971  0.74771149    -0.51000
C62         C  0.20903402  0.13151451  0.70241089     0.71000
O63         O  0.21087751  0.10893731  0.71308897    -0.45900
C64         C  0.25206325  0.06863400  0.66229780     0.75700
O65         O  0.28207272  0.13881039  0.69272285    -0.57700
O66         O  0.24417407  0.09220186  0.65994260    -0.47800
O67         O  0.29958553  0.10219763  0.70335660    -0.54200
C68         C  0.25287995  0.09090741  0.75541089     0.85900
O69         O  0.23038523  0.14005722  0.69158373    -0.56100
O70         O  0.26083237  0.06316568  0.68552683    -0.59400
In71       In  0.77028911  0.10017680  0.72922128     1.36900
C72         C  0.81525325  0.12808557  0.72577573     0.78300
O73         O  0.76585194  0.11402934  0.77282515    -0.60100
O74         O  0.77581015  0.07345965  0.76502588    -0.51000
C75         C  0.72288803  0.12167911  0.71924127     0.71000
O76         O  0.74449946  0.13156935  0.71053847    -0.45900
C77         C  0.77181404  0.06245691  0.69048441     0.75700
O78         O  0.81440825  0.10501182  0.73564723    -0.57700
O79         O  0.76080643  0.05890678  0.71339652    -0.47800
O80         O  0.79320854  0.13671738  0.71750293    -0.54200
C81         C  0.77109959  0.09154884  0.78256322     0.85900
O82         O  0.72550617  0.10104183  0.73320805    -0.56100
O83         O  0.78338201  0.08458800  0.68796571    -0.59400
In84       In  0.75260046  0.40306324  0.78884133     1.36900
C85         C  0.75600604  0.43961757  0.82884270     0.78300
O86         O  0.73222116  0.36391622  0.79758900    -0.60100
O87         O  0.70800245  0.39761832  0.79048143    -0.51000
C88         C  0.74287736  0.41746053  0.73782708     0.71000
O89         O  0.75044969  0.39430381  0.74358199    -0.45900
C90         C  0.80173083  0.38246216  0.78897125     0.75700
O91         O  0.76430291  0.44361688  0.80488730    -0.57700
O92         O  0.79512800  0.40119433  0.77369696    -0.47800
O93         O  0.74558696  0.41704025  0.83242778    -0.54200
C94         C  0.70895407  0.37305358  0.79524262     0.85900
O95         O  0.74030348  0.43310181  0.75810574    -0.56100
O96         O  0.78315846  0.37393218  0.80418358    -0.59400
In97       In  0.66141125  0.47365746  0.51837821     1.36900
C98         C  0.63413723  0.51917661  0.51577307     0.78300
O99         O  0.67131767  0.48138612  0.56225723    -0.60100
O100        O  0.69328443  0.45139535  0.54107310    -0.51000
C101        C  0.63099480  0.42980396  0.51959829     0.71000
O102        O  0.62414259  0.45117527  0.53151823    -0.45900
C103        C  0.69114087  0.48406074  0.47432973     0.75700
O104        O  0.65082016  0.51489097  0.53426078    -0.57700
O105        O  0.69788017  0.49160594  0.49799922    -0.47800
O106        O  0.63028417  0.49970527  0.49968449    -0.54200
C107        C  0.68874835  0.46349948  0.56340306     0.85900
O108        O  0.65269807  0.43123620  0.50646606    -0.56100
O109        O  0.67047126  0.46971596  0.47355889    -0.59400
In110      In  0.33991880  0.47332593  0.49608522     1.36900
C111        C  0.36605653  0.51972154  0.49175114     0.78300
O112        O  0.32145317  0.46869712  0.45456419    -0.60100
O113        O  0.30115477  0.49174461  0.48477577    -0.51000
C114        C  0.36456465  0.42708435  0.48676849     0.71000
O115        O  0.37624309  0.44926348  0.48400468    -0.45900
C116        C  0.32557633  0.46532487  0.54752929     0.75700
O117        O  0.35051319  0.51450738  0.51140668    -0.57700
O118        O  0.31000654  0.46118769  0.52777192    -0.47800
O119        O  0.36920771  0.50082355  0.47480860    -0.54200
C120        C  0.30213924  0.48369300  0.46033592     0.85900
O121        O  0.34051357  0.42857520  0.49428280    -0.56100
O122        O  0.34860582  0.47372343  0.54101461    -0.59400
C123        C  0.51758521  0.28401732  0.51123266    -0.10100
C124        C  0.49460597  0.29609581  0.50148560    -0.04000
C125        C  0.47209612  0.28140459  0.49371803    -0.10100
C126        C  0.47233076  0.25328863  0.49569048     0.10900
C127        C  0.49584445  0.24049875  0.50479581    -0.01900
C128        C  0.51866715  0.25589596  0.51236501     0.10700
C129        C  0.54164521  0.24278264  0.52125276    -0.11900
C130        C  0.54241981  0.21503699  0.52244969    -0.11900
C131        C  0.52013503  0.19943951  0.51511926     0.10700
C132        C  0.49653913  0.21224912  0.50635015    -0.01900
C133        C  0.45009392  0.23760186  0.48831395    -0.12000
C134        C  0.45070198  0.20987625  0.49011903    -0.12000
C135        C  0.47368184  0.19682612  0.49902519     0.10900
C136        C  0.47468842  0.16871738  0.50056567    -0.10100
C137        C  0.49795809  0.15656649  0.50930308    -0.04000
C138        C  0.52056470  0.17133510  0.51662353    -0.10100
H139        H  0.55924793  0.25389648  0.52736126     0.08100
H140        H  0.56058423  0.20585956  0.52940235     0.08100
H141        H  0.43204533  0.24662561  0.48093085     0.08300
H142        H  0.43306029  0.19866782  0.48426991     0.08300
H143        H  0.49413967  0.31765839  0.50016852     0.04700
H144        H  0.49858710  0.13497023  0.51011214     0.04700
In145      In  0.34281366  0.97079020  0.47382467     1.36900
C146        C  0.31297500  0.95991021  0.43042919     0.78300
O147        O  0.35985141  0.00602475  0.49707239    -0.60100
O148        O  0.37278721  0.00044150  0.45619054    -0.51000
C149        C  0.30489791  0.97833969  0.51107944     0.71000
O150        O  0.30404987  0.98877062  0.48778854    -0.45900
C151        C  0.37374945  0.92838559  0.47924759     0.75700
O152        O  0.32241119  0.98278439  0.43532216    -0.57700
O153        O  0.37550023  0.94341892  0.45884531    -0.47800
O154        O  0.31880889  0.94255685  0.44764646    -0.54200
C155        C  0.37368289  0.01474359  0.47752994     0.85900
O156        O  0.32449905  0.96326466  0.51482549    -0.56100
O157        O  0.35727706  0.93581069  0.49736013    -0.59400
In158      In  0.65150341  0.97726674  0.51088837     1.36900
C159        C  0.62544147  0.93109119  0.51655096     0.78300
O160        O  0.64286140  0.97630081  0.46597706    -0.60100
O161        O  0.68287378  0.97019234  0.47892365    -0.51000
C162        C  0.62590474  0.02359418  0.51683724     0.71000
O163        O  0.62343590  0.00519295  0.53396492    -0.45900
C164        C  0.69030860  0.98336145  0.54720216     0.75700
O165        O  0.64874389  0.93272077  0.50680816    -0.57700
O166        O  0.69025299  0.99539074  0.52485396    -0.47800
O167        O  0.61520366  0.95311478  0.52343353    -0.54200
C168        C  0.66690774  0.97202177  0.45924317     0.85900
O169        O  0.64046295  0.01788700  0.49651646    -0.56100
O170        O  0.67098479  0.96758503  0.55071077    -0.59400
C171        C  0.52599361  0.66646844  0.50298323    -0.10100
C172        C  0.50269158  0.65261686  0.49588177    -0.04000
C173        C  0.47831255  0.66543977  0.49260248    -0.10100
C174        C  0.47705592  0.69341220  0.49564975     0.10900
C175        C  0.50043318  0.70797789  0.50300826    -0.01900
C176        C  0.52491501  0.69444166  0.50734386     0.10700
C177        C  0.54758400  0.70937533  0.51493828    -0.11900
C178        C  0.54643643  0.73708245  0.51786167    -0.11900
C179        C  0.52276809  0.75090945  0.51260563     0.10700
C180        C  0.49946847  0.73621365  0.50526554    -0.01900
C181        C  0.45333662  0.70725081  0.49058612    -0.12000
C182        C  0.45254936  0.73496911  0.49230835    -0.12000
C183        C  0.47533712  0.74977760  0.49957059     0.10900
C184        C  0.47487684  0.77787809  0.50099474    -0.10100
C185        C  0.49769425  0.79191121  0.50873684    -0.04000
C186        C  0.52151787  0.77905826  0.51451329    -0.10100
H187        H  0.56647575  0.69978397  0.51850931     0.08100
H188        H  0.56438917  0.74765691  0.52389759     0.08100
H189        H  0.43529233  0.69675460  0.48467740     0.08300
H190        H  0.43392642  0.74476253  0.48785580     0.08300
H191        H  0.50348646  0.63114265  0.49309537     0.04700
H192        H  0.49703963  0.81353419  0.50962752     0.04700
C193        C  0.54149115  0.77833548  0.24532115    -0.10100
C194        C  0.55383517  0.75531293  0.25437779    -0.04000
C195        C  0.53948255  0.73347065  0.26409090    -0.10100
C196        C  0.51130468  0.73366413  0.26289276     0.10900
C197        C  0.49821732  0.75603857  0.25153720    -0.01900
C198        C  0.51334889  0.77854744  0.24266871     0.10700
C199        C  0.49985387  0.80048387  0.23202987    -0.11900
C200        C  0.47214841  0.80006085  0.22908509    -0.11900
C201        C  0.45671638  0.77840151  0.23827413     0.10700
C202        C  0.46988538  0.75632380  0.25006780    -0.01900
C203        C  0.49588842  0.71260809  0.27338701    -0.12000
C204        C  0.46806912  0.71323535  0.27260329    -0.12000
C205        C  0.45474402  0.73469556  0.26080416     0.10900
C206        C  0.42660559  0.73552372  0.25994687    -0.10100
C207        C  0.41415371  0.75645206  0.24679548    -0.04000
C208        C  0.42849292  0.77784372  0.23595798    -0.10100
H209        H  0.51055662  0.81803410  0.22541406     0.08100
H210        H  0.46296275  0.81704775  0.21975655     0.08100
H211        H  0.50525959  0.69557820  0.28252652     0.08300
H212        H  0.45704675  0.69663041  0.28115712     0.08300
H213        H  0.57549461  0.75491399  0.25524349     0.04700
H214        H  0.39250189  0.75639461  0.24566126     0.04700
C215        C  0.92812101  0.79420720  0.24304207    -0.10100
C216        C  0.91375454  0.77392438  0.25593562    -0.04000
C217        C  0.92624174  0.75376603  0.27026514    -0.10100
C218        C  0.95444868  0.75402067  0.27236246     0.10900
C219        C  0.96955155  0.77427440  0.25898248    -0.01900
C220        C  0.95634542  0.79435812  0.24407980     0.10700
C221        C  0.97168359  0.81368437  0.23039780    -0.11900
C222        C  0.99954678  0.81349699  0.23142151    -0.11900
C223        C  0.01302693  0.79436802  0.24672661     0.10700
C224        C  0.99789396  0.77456268  0.26069991    -0.01900
C225        C  0.96789531  0.73521693  0.28805613    -0.12000
C226        C  0.99566485  0.73564279  0.28994245    -0.12000
C227        C  0.01105843  0.75485753  0.27615773     0.10900
C228        C  0.03926740  0.75522434  0.27770206    -0.10100
C229        C  0.05373825  0.77465263  0.26353836    -0.04000
C230        C  0.04125983  0.79395059  0.24801327    -0.10100
H231        H  0.96219639  0.82891615  0.21849916     0.08100
H232        H  0.01042363  0.82855185  0.22015253     0.08100
H233        H  0.95705048  0.72017416  0.29936104     0.08300
H234        H  0.00498512  0.72079906  0.30244887     0.08300
H235        H  0.89210240  0.77398740  0.25497033     0.04700
H236        H  0.07540753  0.77438766  0.26403869     0.04700
In237      In  0.23903143  0.91268897  0.20776852     1.36900
C238        C  0.24226274  0.92420906  0.26067481     0.78300
O239        O  0.19438880  0.91326860  0.21304608    -0.60100
O240        O  0.21179363  0.87931451  0.19404053    -0.51000
C241        C  0.24003934  0.94818968  0.16774618     0.71000
O242        O  0.23230286  0.95380274  0.19169067    -0.45900
C243        C  0.28474662  0.88618196  0.20460501     0.75700
O244        O  0.24459124  0.94160122  0.24241057    -0.57700
O245        O  0.26263577  0.87591181  0.19793035    -0.47800
O246        O  0.23751400  0.90092943  0.25196000    -0.54200
C247        C  0.19081123  0.89052924  0.20257583     0.85900
O248        O  0.24790785  0.92462959  0.16433952    -0.56100
O249        O  0.28362508  0.91026335  0.21216664    -0.59400
In250      In  0.22485021  0.61795787  0.28387004     1.36900
C251        C  0.27324309  0.63968081  0.28630011     0.78300
O252        O  0.22515752  0.60555165  0.32776168    -0.60100
O253        O  0.23448845  0.57662855  0.29716521    -0.51000
C254        C  0.17898674  0.64270106  0.29518518     0.71000
O255        O  0.17996680  0.61855695  0.28785288    -0.45900
C256        C  0.21925756  0.60652946  0.23102479     0.75700
O257        O  0.26904209  0.61646493  0.27723678    -0.57700
O258        O  0.21229056  0.59073339  0.24964080    -0.47800
O259        O  0.25258713  0.65214506  0.29389049    -0.54200
C260        C  0.23227730  0.58208481  0.32226636     0.85900
O261        O  0.20141313  0.65415268  0.29693190    -0.56100
O262        O  0.22833621  0.62864810  0.23937470    -0.59400
In263      In  0.73162703  0.92166514  0.22964119     1.36900
C264        C  0.68997659  0.88863355  0.22849133     0.78300
O265        O  0.73967360  0.92877617  0.27399414    -0.60100
O266        O  0.70507711  0.94635560  0.25747476    -0.51000
C267        C  0.77892105  0.89728769  0.22669845     0.71000
O268        O  0.75829374  0.88783945  0.21548795    -0.45900
C269        C  0.73626715  0.95686899  0.18967948     0.75700
O270        O  0.69221861  0.90787085  0.21235333    -0.57700
O271        O  0.74096472  0.96288350  0.21426488    -0.47800
O272        O  0.70966308  0.88542539  0.24392251    -0.54200
C273        C  0.71887108  0.94214135  0.27836488     0.85900
O274        O  0.77544385  0.91923285  0.23891654    -0.56100
O275        O  0.72883124  0.93314726  0.18568382    -0.59400
In276      In  0.73782115  0.61221770  0.27960157     1.36900
C277        C  0.73616208  0.57551179  0.31862076     0.78300
O278        O  0.75932668  0.64995208  0.29154041    -0.60100
O279        O  0.78279981  0.61601068  0.28154903    -0.51000
C280        C  0.74551324  0.60337730  0.22637501     0.71000
O281        O  0.74081487  0.62622380  0.23617324    -0.45900
C282        C  0.68853805  0.63230438  0.28379956     0.75700
O283        O  0.74405628  0.59903458  0.32265669    -0.57700
O284        O  0.70864639  0.64329616  0.29443920    -0.47800
O285        O  0.72956368  0.57029270  0.29434618    -0.54200
C286        C  0.78241255  0.64024176  0.28880113     0.85900
O287        O  0.74635398  0.58506810  0.24376669    -0.56100
O288        O  0.69348555  0.61094256  0.27104735    -0.59400
In289      In  0.84499581  0.55957517  0.01135392     1.36900
C290        C  0.87511036  0.60360395  0.00940588     0.78300
O291        O  0.80752770  0.54020254  0.99526955    -0.60100
O292        O  0.83308948  0.55987829  0.96716425    -0.51000
C293        C  0.87605034  0.51620631  0.01362078     0.71000
O294        O  0.87417078  0.53019031  0.99255353    -0.45900
C295        C  0.81233934  0.57180682  0.05276035     0.75700
O296        O  0.87795063  0.58628939  0.02761150    -0.57700
O297        O  0.81896470  0.58865288  0.03501601    -0.47800
O298        O  0.85775821  0.59785495  0.99180493    -0.54200
C299        C  0.81230608  0.54607740  0.97078891     0.85900
O300        O  0.86354542  0.52532281  0.03409930    -0.56100
O301        O  0.82194729  0.54894571  0.04896359    -0.59400
In302      In  0.16832418  0.55426229  0.99954204     1.36900
C303        C  0.13881793  0.50997087  0.99468609     0.78300
O304        O  0.18247117  0.55555142  0.95583793    -0.60100
O305        O  0.20787877  0.53820285  0.98494943    -0.51000
C306        C  0.14060124  0.59927417  0.99796853     0.71000
O307        O  0.16102766  0.59530811  0.98322825    -0.45900
C308        C  0.18885289  0.56234105  0.04886903     0.75700
O309        O  0.15956624  0.51155746  0.00881946    -0.57700
O310        O  0.19634616  0.57586275  0.02857074    -0.47800
O311        O  0.13272657  0.53123199  0.98285258    -0.54200
C312        C  0.20390154  0.54346407  0.96024958     0.85900
O313        O  0.13382650  0.57993037  0.01277196    -0.56100
O314        O  0.17171239  0.54461011  0.04361609    -0.59400
C315        C  0.97851540  0.36362447  0.01604545    -0.10100
C316        C  0.00259175  0.37711398  0.01196997    -0.04000
C317        C  0.02666137  0.36385079  0.00749572    -0.10100
C318        C  0.02712549  0.33564708  0.00816254     0.10900
C319        C  0.00283533  0.32140662  0.01291586    -0.01900
C320        C  0.97838981  0.33545457  0.01689643     0.10700
C321        C  0.95453695  0.32096816  0.02047509    -0.11900
C322        C  0.95443601  0.29315521  0.01964550    -0.11900
C323        C  0.97818140  0.27889460  0.01511364     0.10700
C324        C  0.00270629  0.29306673  0.01199143    -0.01900
C325        C  0.05070469  0.32128223  0.00291666    -0.12000
C326        C  0.05059989  0.29346259  0.00227715    -0.12000
C327        C  0.02685827  0.27897006  0.00653639     0.10900
C328        C  0.02617246  0.25079164  0.00423743    -0.10100
C329        C  0.00187633  0.23739671  0.00723070    -0.04000
C330        C  0.97806449  0.25083454  0.01249281    -0.10100
H331        H  0.93571002  0.33110494  0.02362704     0.08100
H332        H  0.93551041  0.28285647  0.02217377     0.08100
H333        H  0.06941664  0.33140995  0.99876314     0.08300
H334        H  0.06921066  0.28336530  0.99781543     0.08300
H335        H  0.00234628  0.39872047  0.01103412     0.04700
H336        H  0.00137358  0.21584837  0.00485550     0.04700
In337      In  0.16499262  0.05944679  0.97634188     1.36900
C338        C  0.19691832  0.06405430  0.93279029     0.78300
O339        O  0.13634937  0.03128814  0.95486006    -0.60100
O340        O  0.14444475  0.02499140  0.99666157    -0.51000
C341        C  0.19566725  0.04613139  0.01774758     0.71000
O342        O  0.17522338  0.06043819  0.02080492    -0.45900
C343        C  0.13611482  0.10412361  0.98051088     0.75700
O344        O  0.19488741  0.08240025  0.95055157    -0.57700
O345        O  0.15657926  0.10019657  0.99454453    -0.47800
O346        O  0.18341275  0.04348540  0.93780692    -0.54200
C347        C  0.13333739  0.01653544  0.97531094     0.85900
O348        O  0.20149661  0.04011149  0.99328253    -0.56100
O349        O  0.13016064  0.08514457  0.96453840    -0.59400
In350      In  0.84691755  0.05320331  0.00467375     1.36900
C351        C  0.87595614  0.09785270  0.00781349     0.78300
O352        O  0.82596037  0.03863649  0.96731787    -0.60100
O353        O  0.82087011  0.07924460  0.97866408    -0.51000
C354        C  0.88171502  0.01273514  0.00318700     0.71000
O355        O  0.87197448  0.02264863  0.98213249    -0.45900
C356        C  0.81093855  0.04236431  0.04360874     0.75700
O357        O  0.87463678  0.08366864  0.98639700    -0.57700
O358        O  0.81156225  0.02999410  0.02106546    -0.47800
O359        O  0.86340725  0.08864778  0.02806430    -0.54200
C360        C  0.81610854  0.06083001  0.96156521     0.85900
O361        O  0.87492891  0.02437387  0.02510529    -0.56100
O362        O  0.82800945  0.06073774  0.04584652    -0.59400
C363        C  0.98624998  0.75063872  0.00079247    -0.10100
C364        C  0.01022152  0.73670998  0.99954379    -0.04000
C365        C  0.03472571  0.74931748  0.99480054    -0.10100
C366        C  0.03544954  0.77714468  0.99033074     0.10900
C367        C  0.01121300  0.79183844  0.99197049    -0.01900
C368        C  0.98649199  0.77852469  0.99715171     0.10700
C369        C  0.96294907  0.79351847  0.99941843    -0.11900
C370        C  0.96358766  0.82120808  0.99714122    -0.11900
C371        C  0.98774486  0.83481509  0.99221450     0.10700
C372        C  0.01178461  0.81999843  0.98929158    -0.01900
C373        C  0.05956597  0.79081323  0.98520980    -0.12000
C374        C  0.06000874  0.81841219  0.98184407    -0.12000
C375        C  0.03644382  0.83336877  0.98413958     0.10900
C376        C  0.03663931  0.86138996  0.98141603    -0.10100
C377        C  0.01294629  0.87556644  0.98475262    -0.04000
C378        C  0.98871201  0.86290350  0.99033935    -0.10100
H379        H  0.94388133  0.78393804  0.00340991     0.08100
H380        H  0.94498769  0.83194174  0.99934887     0.08100
H381        H  0.07832100  0.78028767  0.98386958     0.08300
H382        H  0.07904617  0.82804495  0.97782164     0.08300
H383        H  0.00979870  0.71532373  0.00263643     0.04700
H384        H  0.01341155  0.89713345  0.98321349     0.04700
C385        C  0.91523235  0.95336154  0.98716677     0.30500
C386        C  0.92311221  0.93166989  0.97058953    -0.35800
C387        C  0.93839967  0.91215205  0.98329442     0.16500
C388        C  0.94573012  0.91401594  0.01036525     0.22300
C389        C  0.93766732  0.93561854  0.02701253    -0.33900
C390        C  0.92218226  0.95503004  0.01436409     0.16400
O391        O  0.90085680  0.97381255  0.97948383    -0.26000
C392        C  0.89843729  0.98874874  0.00207508     0.06200
C393        C  0.91132100  0.97806834  0.02443030    -0.30800
O394        O  0.96249153  0.89512152  0.01718081    -0.22700
C395        C  0.96549007  0.88055428  0.99438555    -0.02700
C396        C  0.95100003  0.89030676  0.97263287    -0.17100
H397        H  0.91808014  0.93034506  0.94915386     0.20900
H398        H  0.94361093  0.93749295  0.04815906     0.19300
H399        H  0.91215896  0.98591889  0.04512894     0.19200
H400        H  0.95188142  0.88386897  0.95143178     0.15100
C401        C  0.10896530  0.95194528  0.98524874     0.30500
C402        C  0.10483200  0.92814761  0.99947291    -0.35800
C403        C  0.08928305  0.90865774  0.98620649     0.16500
C404        C  0.07852455  0.91244605  0.96071232     0.22300
C405        C  0.08318444  0.93600977  0.94621821    -0.33900
C406        C  0.09864936  0.95550776  0.95952407     0.16400
O407        O  0.12176106  0.97321627  0.99440403    -0.26000
C408        C  0.11967909  0.99061735  0.97428390     0.06200
C409        C  0.10557933  0.98070625  0.95197902    -0.30800
O410        O  0.06091688  0.89388672  0.95423254    -0.22700
C411        C  0.06059250  0.87767000  0.97555148    -0.02700
C412        C  0.07809951  0.88577874  0.99598123    -0.17100
H413        H  0.11213208  0.92553697  0.01999656     0.20900
H414        H  0.07409615  0.93949680  0.92663278     0.19300
H415        H  0.10117946  0.99058695  0.93303986     0.19200
H416        H  0.07933299  0.87822908  0.01655235     0.15100
C417        C  0.10656110  0.16567900  0.99706723     0.30500
C418        C  0.10139800  0.18876789  0.01286727    -0.35800
C419        C  0.08144934  0.20566857  0.00311733     0.16500
C420        C  0.06755507  0.20008359  0.97949915     0.22300
C421        C  0.07273987  0.17709439  0.96371255    -0.33900
C422        C  0.09255788  0.16022110  0.97348401     0.16400
O423        O  0.12380957  0.14677154  0.00269162    -0.26000
C424        C  0.12062811  0.12892688  0.98253770     0.06200
C425        C  0.10140362  0.13622736  0.96382415    -0.30800
O426        O  0.04790560  0.21686821  0.97564360    -0.22700
C427        C  0.04930525  0.23384255  0.99676192    -0.02700
C428        C  0.06984259  0.22781805  0.01459347    -0.17100
H429        H  0.11167978  0.19287504  0.03182334     0.20900
H430        H  0.06140730  0.17221568  0.94558629     0.19300
H431        H  0.09490340  0.12539731  0.94577067     0.19200
H432        H  0.07383802  0.23677426  0.03439809     0.15100
C433        C  0.90518373  0.16007172  0.02279612     0.30500
C434        C  0.91374717  0.18179495  0.03904793    -0.35800
C435        C  0.92736385  0.20227900  0.02519106     0.16500
C436        C  0.93201157  0.20135262  0.99731471     0.22300
C437        C  0.92332883  0.17984225  0.98115332    -0.33900
C438        C  0.91006200  0.15937509  0.99496774     0.08400
O439        O  0.89283351  0.13831131  0.03135093    -0.26000
C440        C  0.89007132  0.12358283  0.00864799     0.06200
C441        C  0.90049367  0.13567164  0.98548468    -0.30800
O442        O  0.94807568  0.22047183  0.98900850    -0.22700
C443        C  0.95373250  0.23420775  0.01165059    -0.02700
C444        C  0.94132494  0.22386360  0.03487546    -0.17100
H445        H  0.91091866  0.18221114  0.06102130     0.20900
H446        H  0.92776652  0.17856340  0.95946587     0.19300
H447        H  0.90070405  0.12816607  0.96462727     0.19200
H448        H  0.94478000  0.22939917  0.05601600     0.15100
C449        C  0.11057410  0.44629109  0.00088152     0.30500
C450        C  0.10705924  0.42097800  0.01238994    -0.35800
C451        C  0.08450936  0.40649156  0.00381039     0.16500
C452        C  0.06689711  0.41627149  0.98499172     0.22300
C453        C  0.07053075  0.44142406  0.97331315    -0.33900
C454        C  0.09284195  0.45600204  0.98212826     0.16400
O455        O  0.12919027  0.46387771  0.00739030    -0.26000
C456        C  0.12324850  0.48513033  0.99271500     0.06200
C457        C  0.10082747  0.48140948  0.97657358    -0.30800
O458        O  0.04559661  0.40108628  0.98228508    -0.22700
C459        C  0.04942644  0.38111911  0.99941403    -0.02700
C460        C  0.07343293  0.38339660  0.01339578    -0.17100
H461        H  0.12027771  0.41364796  0.02789219     0.20900
H462        H  0.05618007  0.44960486  0.95939432     0.19300
H463        H  0.09145673  0.49554701  0.96327172     0.19200
H464        H  0.08031123  0.37141015  0.03010201     0.15100
C465        C  0.07790978  0.69818144  0.01135176     0.30500
C466        C  0.08388734  0.67501250  0.02561137    -0.35800
C467        C  0.10138761  0.65730659  0.01245990     0.16500
C468        C  0.11281783  0.66225945  0.98721101     0.22300
C469        C  0.10682712  0.68558313  0.97287735    -0.33900
C470        C  0.08883860  0.70320094  0.98589434     0.16400
O471        O  0.05948567  0.71546520  0.01854968    -0.26000
C472        C  0.05838720  0.73208844  0.99764973     0.06200
C473        C  0.07630199  0.72545816  0.97662289    -0.30800
O474        O  0.12824833  0.64253301  0.97859358    -0.22700
C475        C  0.12623810  0.62468809  0.99845610    -0.02700
C476        C  0.10973884  0.63278911  0.01996145    -0.17100
H477        H  0.07453075  0.67052513  0.04508977     0.20900
H478        H  0.11481610  0.68922551  0.95260514     0.19300
H479        H  0.07781636  0.73400839  0.95646473     0.19200
H480        H  0.10475446  0.62217502  0.03847593     0.15100
C481        C  0.93455593  0.41428665  0.00083547     0.30500
C482        C  0.92763298  0.43666008  0.98569818    -0.35800
C483        C  0.91265527  0.45612161  0.99957723     0.16500
C484        C  0.90466621  0.45372275  0.02651924     0.22300
C485        C  0.91152063  0.43113595  0.04173293    -0.33900
C486        C  0.92681856  0.41162931  0.02782866     0.16400
O487        O  0.95129539  0.39568132  0.99266180    -0.26000
C488        C  0.95443404  0.38047833  0.01444625     0.06200
C489        C  0.93958433  0.38943599  0.03704550    -0.30800
O490        O  0.89112666  0.47474882  0.03541555    -0.22700
C491        C  0.89065339  0.49076198  0.01385454    -0.02700
C492        C  0.90377510  0.48014865  0.99105925    -0.17100
H493        H  0.93443194  0.43922156  0.96480697     0.20900
H494        H  0.90610321  0.42933584  0.06311439     0.19300
H495        H  0.94054066  0.38253176  0.05787486     0.19200
H496        H  0.90617013  0.48879756  0.97101958     0.15100
C497        C  0.91470723  0.66039784  0.02169030     0.30500
C498        C  0.93286545  0.67670649  0.03588157    -0.35800
C499        C  0.94070329  0.70027358  0.02284437     0.16500
C500        C  0.93146925  0.70737002  0.99749451     0.22300
C501        C  0.91285556  0.69128564  0.98352678    -0.33900
C502        C  0.90501113  0.66767114  0.99658103     0.16400
O503        O  0.90581845  0.63682421  0.02945325    -0.26000
C504        C  0.89013813  0.62890032  0.00908083     0.06200
C505        C  0.88880683  0.64731798  0.98812174    -0.30800
O506        O  0.94445368  0.72813002  0.98740972    -0.22700
C507        C  0.96198626  0.73461362  0.00671279    -0.02700
C508        C  0.96030719  0.71804469  0.02927907    -0.17100
H509        H  0.94120459  0.67086644  0.05519239     0.20900
H510        H  0.90600060  0.69615386  0.96331184     0.19300
H511        H  0.87774003  0.64575607  0.96927924     0.19200
H512        H  0.97380565  0.71727858  0.04638002     0.15100
C513        C  0.77585539  0.57183176  0.11378000     0.30500
C514        C  0.76631250  0.56030748  0.13790468    -0.35800
C515        C  0.75893304  0.57804756  0.15888793     0.16500
C516        C  0.76032750  0.60536911  0.15622419     0.22300
C517        C  0.76927005  0.61696928  0.13172793    -0.33900
C518        C  0.77709702  0.59913601  0.11078958     0.16400
O519        O  0.78702795  0.55885034  0.09317731    -0.26000
C520        C  0.79544386  0.57794181  0.07659978     0.06200
C521        C  0.78962476  0.60347676  0.08628028    -0.30800
O522        O  0.75488242  0.61805616  0.17942838    -0.22700
C523        C  0.75012811  0.59854241  0.19705311    -0.02700
C524        C  0.75219440  0.57328702  0.18536822    -0.17100
H525        H  0.76625954  0.53895540  0.14072665     0.20900
H526        H  0.77146199  0.63832486  0.12971710     0.19300
H527        H  0.79556934  0.62235495  0.07757507     0.19200
H528        H  0.75033597  0.55421149  0.19529841     0.15100
C529        C  0.75830968  0.00572904  0.14445786     0.30500
C530        C  0.77550757  0.02618608  0.13582587    -0.35800
C531        C  0.77857400  0.02889044  0.10747469     0.16500
C532        C  0.76546432  0.01271691  0.08881813     0.22300
C533        C  0.74761169  0.99279628  0.09744744    -0.33900
C534        C  0.74480959  0.98986391  0.12581528     0.16400
O535        O  0.75570067  0.99716209  0.16972400    -0.26000
C536        C  0.74042895  0.97551445  0.16720596     0.06200
C537        C  0.73280374  0.97017408  0.14043188    -0.30800
O538        O  0.77415079  0.01620815  0.06353901    -0.22700
C539        C  0.79284333  0.03501563  0.06607304    -0.02700
C540        C  0.79625912  0.04383397  0.09286444    -0.17100
H541        H  0.78717336  0.03788634  0.15017470     0.20900
H542        H  0.73814567  0.97922760  0.08308746     0.19300
H543        H  0.72191808  0.95302898  0.13264101     0.19200
H544        H  0.81121590  0.05754745  0.10066297     0.15100
C545        C  0.20792711  0.57731397  0.16685222     0.30500
C546        C  0.19788085  0.55812833  0.14857292    -0.35800
C547        C  0.20076002  0.56390649  0.12077555     0.16500
C548        C  0.21291564  0.58686987  0.11141635     0.22300
C549        C  0.22331902  0.60597357  0.12976771    -0.33900
C550        C  0.22015621  0.60032067  0.15769262     0.16400
O551        O  0.20609237  0.57649099  0.19371032    -0.26000
C552        C  0.21717015  0.59930464  0.20196050     0.06200
C553        C  0.22637748  0.61494512  0.18049016    -0.30800
O554        O  0.21151036  0.58901507  0.08456078    -0.22700
C555        C  0.19826274  0.56713672  0.07681880    -0.02700
C556        C  0.19123956  0.55078342  0.09845676    -0.17100
H557        H  0.18769778  0.54034780  0.15556240     0.20900
H558        H  0.23234416  0.62435875  0.12280930     0.19300
H559        H  0.23592323  0.63433804  0.18155926     0.19200
H560        H  0.17954127  0.53256470  0.09792282     0.15100
C561        C  0.21671907  0.02538758  0.08164106     0.30500
C562        C  0.21476724  0.02322783  0.11013912    -0.35800
C563        C  0.22690939  0.00091127  0.12138559     0.16500
C564        C  0.24007563  0.98196014  0.10568036     0.22300
C565        C  0.24258625  0.98445486  0.07721539    -0.33900
C566        C  0.23045907  0.00682622  0.06595483     0.16400
O567        O  0.20398557  0.04272340  0.06668720    -0.26000
C568        C  0.20992087  0.03543584  0.04111279     0.06200
C569        C  0.22651837  0.01336789  0.03937543    -0.30800
O570        O  0.24736517  0.96127811  0.12008674    -0.22700
C571        C  0.23893665  0.96720857  0.14532703    -0.02700
C572        C  0.22626604  0.99169343  0.14740689    -0.17100
H573        H  0.20330653  0.03717361  0.12250752     0.20900
H574        H  0.25207772  0.96929840  0.06459133     0.19300
H575        H  0.23266540  0.00233160  0.02122622     0.19200
H576        H  0.21648204  0.00054283  0.16513782     0.15100
C577        C  0.12770594  0.68788539  0.30994712     0.30500
C578        C  0.11728531  0.71300461  0.31666605    -0.35800
C579        C  0.09103185  0.71766736  0.30839168     0.16500
C580        C  0.07592420  0.69888621  0.29450601     0.22300
C581        C  0.08601560  0.67335151  0.28872413    -0.33900
C582        C  0.11237300  0.66871655  0.29688782     0.16400
O583        O  0.15292676  0.68085623  0.31203209    -0.26000
C584        C  0.15374786  0.65674284  0.30046926     0.06200
C585        C  0.12905014  0.64801076  0.29097675    -0.30800
O586        O  0.05404369  0.70908849  0.28416417    -0.22700
C587        C  0.05503293  0.73466865  0.29169037    -0.02700
C588        C  0.07743971  0.74093302  0.30719270    -0.17100
H589        H  0.12952339  0.72856856  0.32571623     0.20900
H590        H  0.07491476  0.65888150  0.27671668     0.19300
H591        H  0.12458647  0.63003390  0.27938531     0.19200
H592        H  0.08437686  0.76050560  0.31356283     0.15100
C593        C  0.12479688  0.86953644  0.21271226     0.30500
C594        C  0.09942307  0.87022762  0.22527064    -0.35800
C595        C  0.08481733  0.84625622  0.22478020     0.16500
C596        C  0.09458110  0.82326119  0.21267334     0.22300
C597        C  0.11968693  0.82269813  0.19967818    -0.33900
C598        C  0.13429273  0.84658511  0.20026301     0.16400
O599        O  0.14305547  0.88857269  0.21381491    -0.26000
C600        C  0.16443581  0.87767036  0.20188636     0.06200
C601        C  0.16008912  0.85167400  0.19280936    -0.30800
O602        O  0.07936865  0.80236913  0.21764607    -0.22700
C603        C  0.05926616  0.81201785  0.23272402    -0.02700
C604        C  0.06161837  0.83926418  0.23788100    -0.17100
H605        H  0.09226751  0.88776566  0.23610511     0.20900
H606        H  0.12794619  0.80446127  0.19120508     0.19300
H607        H  0.17445230  0.83790177  0.18401199     0.19200
H608        H  0.04944874  0.85149311  0.25142305     0.15100
C609        C  0.87140425  0.71798448  0.29571212     0.30500
C610        C  0.84443262  0.71567029  0.30343094    -0.35800
C611        C  0.83276392  0.69042250  0.29993405     0.16500
C612        C  0.84673153  0.66874562  0.28985238     0.22300
C613        C  0.87393666  0.67097218  0.28257982    -0.33900
C614        C  0.88557354  0.69639213  0.28577722     0.16400
O615        O  0.88485927  0.74048886  0.29360285    -0.26000
C616        C  0.90818964  0.73344981  0.28244021     0.06200
C617        C  0.90976355  0.70614775  0.27713078    -0.30800
O618        O  0.83111753  0.64777190  0.28560748    -0.22700
C619        C  0.80687672  0.65622279  0.29298901    -0.02700
C620        C  0.80677103  0.68253276  0.30222869    -0.17100
H621        H  0.83289118  0.73278280  0.31001901     0.20900
H622        H  0.88480151  0.65446945  0.27349453     0.19300
H623        H  0.92524721  0.69555240  0.26594783     0.19200
H624        H  0.78975653  0.69453637  0.30822409     0.15100
C625        C  0.88603533  0.84795543  0.23401828     0.30500
C626        C  0.87221924  0.87047064  0.24386195    -0.35800
C627        C  0.84609696  0.87360760  0.23424504     0.16500
C628        C  0.83433475  0.85579146  0.21623362     0.22300
C629        C  0.84826418  0.83355241  0.20609370    -0.33900
C630        C  0.87441061  0.83052312  0.21554104     0.16400
O631        O  0.90877585  0.83888284  0.24355755    -0.26000
C632        C  0.91194660  0.81546155  0.23083676     0.06200
C633        C  0.89129040  0.80954536  0.21283686    -0.30800
O634        O  0.80924385  0.86169531  0.21112197    -0.22700
C635        C  0.80490261  0.88374139  0.22585575    -0.02700
C636        C  0.82710589  0.89206241  0.24068740    -0.17100
H637        H  0.88072422  0.88385191  0.25901917     0.20900
H638        H  0.83895424  0.81898041  0.19268308     0.19300
H639        H  0.88737959  0.79077306  0.20242241     0.19200
H640        H  0.82878364  0.90892475  0.25461214     0.15100
C641        C  0.33086756  0.67841914  0.29517876     0.30500
C642        C  0.34542470  0.70129418  0.30240770    -0.35800
C643        C  0.37146792  0.70291065  0.29178240     0.16500
C644        C  0.38255629  0.68344284  0.27505895     0.22300
C645        C  0.36827226  0.66005880  0.26860551    -0.33900
C646        C  0.34214499  0.65844622  0.27924585     0.16400
O647        O  0.30525928  0.67431430  0.30021871    -0.26000
C648        C  0.30012432  0.65128946  0.28757561     0.06200
C649        C  0.32232797  0.64035038  0.27440965    -0.30800
O650        O  0.40520297  0.69130402  0.26347038    -0.22700
C651        C  0.40875403  0.71593578  0.27325424    -0.02700
C652        C  0.38853235  0.72396134  0.29119951    -0.17100
H653        H  0.33646359  0.71752326  0.31395655     0.20900
H654        H  0.37623228  0.64508537  0.25469497     0.19300
H655        H  0.32329271  0.62246687  0.26183140     0.19200
H656        H  0.38523811  0.74369165  0.29973879     0.15100
C657        C  0.37680224  0.81310004  0.20627503     0.30500
C658        C  0.35114334  0.81451080  0.19521881    -0.35800
C659        C  0.33768238  0.83858674  0.19941819     0.16500
C660        C  0.34881521  0.86002690  0.21321549     0.22300
C661        C  0.37462470  0.85865437  0.22417214    -0.33900
C662        C  0.38802583  0.83436459  0.22024923     0.16400
O663        O  0.39113737  0.79135587  0.20788166    -0.26000
C664        C  0.41205261  0.79851929  0.22295511     0.06200
C665        C  0.41115695  0.82519092  0.23124411    -0.30800
O666        O  0.33193859  0.87997323  0.21624104    -0.22700
C667        C  0.30975447  0.87106719  0.20431177    -0.02700
C668        C  0.31215696  0.84543866  0.19354200    -0.17100
H669        H  0.34176657  0.79750521  0.18533987     0.20900
H670        H  0.38309959  0.87488463  0.23606774     0.19300
H671        H  0.42394908  0.83542203  0.24572017     0.19200
H672        H  0.29701098  0.83333030  0.18365805     0.15100
C673        C  0.58034141  0.67878681  0.27648793     0.30500
C674        C  0.59376529  0.65530646  0.26858298    -0.35800
C675        C  0.61989330  0.65251592  0.27847596     0.16500
C676        C  0.63185131  0.67149060  0.29507456     0.22300
C677        C  0.61819187  0.69438710  0.30366590    -0.33900
C678        C  0.59219723  0.69711503  0.29388358     0.16400
O679        O  0.55810066  0.68794601  0.26571937    -0.26000
C680        C  0.55557511  0.71226270  0.27672598     0.06200
C681        C  0.57601801  0.71861478  0.29481333    -0.30800
O682        O  0.65721758  0.66652250  0.29955403    -0.22700
C683        C  0.66170699  0.64394213  0.28584898    -0.02700
C684        C  0.63917461  0.63414075  0.27246009    -0.17100
H685        H  0.58521388  0.64117137  0.25418946     0.20900
H686        H  0.62780014  0.70986966  0.31572474     0.19300
H687        H  0.58029966  0.73781349  0.30420659     0.19200
H688        H  0.63765181  0.61682497  0.25912115     0.15100
C689        C  0.62757603  0.85673925  0.22332236     0.30500
C690        C  0.60267944  0.84965713  0.21201663    -0.35800
C691        C  0.58689500  0.83178954  0.22733332     0.16500
C692        C  0.59504100  0.82228973  0.25219169     0.22300
C693        C  0.61977646  0.82912526  0.26328085    -0.33900
C694        C  0.63564984  0.84629118  0.24780457     0.16400
O695        O  0.64582218  0.87283791  0.21266704    -0.26000
C696        C  0.66578902  0.87211018  0.23046554     0.06200
C697        C  0.66057676  0.85581450  0.25256287    -0.30800
O698        O  0.57866241  0.80441299  0.26221203    -0.22700
C699        C  0.55958104  0.80179270  0.24367093    -0.02700
C700        C  0.56361249  0.81844654  0.22131842    -0.17100
H701        H  0.59643130  0.85693492  0.19238589     0.20900
H702        H  0.62656955  0.82083403  0.28228216     0.19300
H703        H  0.67308091  0.85214728  0.27001461     0.19200
H704        H  0.55264947  0.81882550  0.20239150     0.15100
C705        C  0.71249792  0.95542318  0.34832971     0.30500
C706        C  0.72039710  0.95518008  0.37570451    -0.35800
C707        C  0.70068903  0.96185829  0.39508267     0.16500
C708        C  0.67490589  0.96827672  0.38807846     0.22300
C709        C  0.66707056  0.96882887  0.36061516    -0.33900
C710        C  0.68685977  0.96224074  0.34117093     0.16400
O711        O  0.72729397  0.94830845  0.32708373    -0.26000
C712        C  0.71107711  0.95088068  0.30597888     0.06200
C713        C  0.68567061  0.95957863  0.31343139    -0.30800
O714        O  0.65950142  0.97282570  0.40968421    -0.22700
C715        C  0.67572506  0.96935275  0.43068117    -0.02700
C716        C  0.70158037  0.96261287  0.42283767    -0.17100
H717        H  0.74036349  0.94958715  0.38151976     0.20900
H718        H  0.64685491  0.97354077  0.35485196     0.19300
H719        H  0.66853284  0.96223006  0.30047372     0.19200
H720        H  0.71841554  0.95841614  0.43575006     0.15100
C721        C  0.56118647  0.83305742  0.53370083     0.30500
C722        C  0.56484475  0.85839975  0.54560004    -0.35800
C723        C  0.58454865  0.87449196  0.53350758     0.16500
C724        C  0.59996696  0.86604348  0.51152185     0.22300
C725        C  0.59635303  0.84063552  0.49965590    -0.33900
C726        C  0.57643861  0.82460030  0.51160593     0.16400
O727        O  0.54151137  0.81643782  0.53938827    -0.26000
C728        C  0.54428817  0.79678314  0.52103862     0.06200
C729        C  0.56576469  0.80080090  0.50320345    -0.30800
O730        O  0.61660551  0.88469595  0.50289608    -0.22700
C731        C  0.61148778  0.90543842  0.51932961    -0.02700
C732        C  0.59168663  0.90030132  0.53873313    -0.17100
H733        H  0.55229144  0.86555010  0.56225295     0.20900
H734        H  0.60755299  0.83423516  0.48172155     0.19300
H735        H  0.57073352  0.78950850  0.48485407     0.19200
H736        H  0.58366856  0.91367487  0.55425829     0.15100
C737        C  0.27745557  0.95970374  0.36946585     0.30500
C738        C  0.26827929  0.97055811  0.34514088    -0.35800
C739        C  0.25815783  0.95235105  0.32592366     0.16500
C740        C  0.25684143  0.92526200  0.33036866     0.22300
C741        C  0.26546187  0.91442404  0.35504729    -0.33900
C742        C  0.27589950  0.93267050  0.37420248     0.16400
O743        O  0.29012397  0.97284889  0.38890011    -0.26000
C744        C  0.29672015  0.95406593  0.40638207     0.06200
C745        C  0.28825789  0.92868233  0.39846745    -0.30800
O746        O  0.24957775  0.91171584  0.30833386    -0.22700
C747        C  0.24625438  0.93043312  0.28968388    -0.02700
C748        C  0.25107043  0.95604731  0.29954814    -0.17100
H749        H  0.27029233  0.99158006  0.34086508     0.20900
H750        H  0.26544289  0.89316178  0.35843708     0.19300
H751        H  0.29186598  0.90995748  0.40845203     0.19200
H752        H  0.25127934  0.97448086  0.28831588     0.15100
C753        C  0.43443055  0.82753992  0.47616117     0.30500
C754        C  0.42968706  0.84961389  0.45964538    -0.35800
C755        C  0.41277502  0.86914249  0.47084351     0.16500
C756        C  0.40115606  0.86701559  0.49645988     0.22300
C757        C  0.40569145  0.84482069  0.51286870    -0.33900
C758        C  0.42263380  0.82528158  0.50167815     0.16400
O759        O  0.45236957  0.80894439  0.47132698    -0.26000
C760        C  0.45175978  0.79422606  0.49376521     0.06200
C761        C  0.43355803  0.80345812  0.51331630    -0.30800
O762        O  0.38640567  0.88782905  0.50306362    -0.22700
C763        C  0.38869922  0.90351008  0.48143327    -0.02700
C764        C  0.40488611  0.89295081  0.46076756    -0.17100
H765        H  0.43939032  0.85192532  0.43991759     0.20900
H766        H  0.39727847  0.84329893  0.53328101     0.19300
H767        H  0.43123957  0.79704884  0.53425911     0.19200
H768        H  0.40977350  0.90141908  0.44108035     0.15100
C769        C  0.40177805  0.07683893  0.49507226     0.30500
C770        C  0.40637452  0.09940581  0.51170633    -0.35800
C771        C  0.42361849  0.11886004  0.50089156     0.16500
C772        C  0.43578835  0.11614575  0.47556118     0.22300
C773        C  0.43098522  0.09367256  0.45879255    -0.33900
C774        C  0.41357558  0.07428694  0.46953783     0.16400
O775        O  0.38669832  0.05609807  0.50137029    -0.26000
C776        C  0.38873625  0.04002323  0.47957107     0.06200
C777        C  0.40521143  0.05030105  0.45909174    -0.30800
O778        O  0.45361802  0.13510381  0.47093485    -0.22700
C779        C  0.45244632  0.15055939  0.49328519    -0.02700
C780        C  0.43412315  0.14134585  0.51261516    -0.17100
H781        H  0.39762251  0.10135319  0.53197424     0.20900
H782        H  0.44080812  0.09108705  0.43910894     0.19300
H783        H  0.41017379  0.04144181  0.43939313     0.19200
H784        H  0.43117656  0.14852595  0.53339998     0.15100
C785        C  0.58958529  0.08075014  0.53547732     0.30500
C786        C  0.57050996  0.09582919  0.55001487    -0.35800
C787        C  0.56419186  0.12063611  0.53893430     0.16500
C788        C  0.57597191  0.13009343  0.51527514     0.22300
C789        C  0.59548316  0.11528794  0.50111633    -0.33900
C790        C  0.60153746  0.09037918  0.51199277     0.16400
O791        O  0.59665196  0.05602557  0.54065399    -0.26000
C792        C  0.61326521  0.04980125  0.52013458     0.06200
C793        C  0.61710309  0.07042866  0.50179669    -0.30800
O794        O  0.56393771  0.15140042  0.50601131    -0.22700
C795        C  0.54431962  0.15585680  0.52403242    -0.02700
C796        C  0.54371395  0.13743672  0.54506742    -0.17100
H797        H  0.56007533  0.08804144  0.56772642     0.20900
H798        H  0.60396848  0.12188718  0.48188728     0.19300
H799        H  0.62901723  0.07039183  0.48318013     0.19200
H800        H  0.52823962  0.13476357  0.56045393     0.15100
C801        C  0.24397696  0.54742972  0.38219676     0.30500
C802        C  0.24544693  0.54407217  0.41049003    -0.35800
C803        C  0.25917773  0.52154481  0.41901684     0.16500
C804        C  0.27093327  0.50362576  0.40096916     0.22300
C805        C  0.26891700  0.50664803  0.37260290    -0.33900
C806        C  0.25503185  0.52914961  0.36406721     0.16400
O807        O  0.23399775  0.56819689  0.36987187    -0.26000
C808        C  0.23839610  0.56298104  0.34351410     0.06200
C809        C  0.25135949  0.53897037  0.33861521    -0.30800
O810        O  0.28615446  0.48636417  0.41341148    -0.22700
C811        C  0.28379592  0.49319656  0.43969563    -0.02700
C812        C  0.26697412  0.51466470  0.44441590    -0.17100
H813        H  0.23759606  0.55870821  0.42486065     0.20900
H814        H  0.27870930  0.49322743  0.35823559     0.19300
H815        H  0.25819694  0.53066397  0.31924380     0.19200
H816        H  0.26344095  0.52543785  0.46343240     0.15100
C817        C  0.43173425  0.33190570  0.46959046     0.30500
C818        C  0.42859543  0.35741502  0.45879743    -0.35800
C819        C  0.40655915  0.37185388  0.46855821     0.16500
C820        C  0.38830668  0.36159419  0.48705086     0.22300
C821        C  0.39117262  0.33581976  0.49748061    -0.33900
C822        C  0.41365252  0.32157543  0.48821101     0.16400
O823        O  0.45338579  0.31734889  0.46708404    -0.26000
C824        C  0.44927253  0.29720322  0.48407724     0.06200
C825        C  0.42473570  0.29873705  0.49771602    -0.30800
O826        O  0.37058120  0.37942733  0.49522223    -0.22700
C827        C  0.37785913  0.40142406  0.48208695    -0.02700
C828        C  0.40006765  0.39789659  0.46518399    -0.17100
H829        H  0.44347874  0.36619145  0.44539278     0.20900
H830        H  0.37787912  0.32817291  0.51315974     0.19300
H831        H  0.41772395  0.28676856  0.51461894     0.19200
H832        H  0.41047743  0.41263937  0.45303959     0.15100
C833        C  0.42166222  0.62423301  0.49509043     0.30500
C834        C  0.40089648  0.61076609  0.50879714    -0.35800
C835        C  0.39318628  0.58606337  0.49747195     0.16500
C836        C  0.40475046  0.57553779  0.47398228     0.22300
C837        C  0.42500439  0.58931108  0.45989371    -0.33900
C838        C  0.43304374  0.61375604  0.47148237     0.16400
O839        O  0.43479431  0.64531561  0.50443800    -0.26000
C840        C  0.45478551  0.64841955  0.48655667     0.06200
C841        C  0.45455484  0.62942997  0.46555730    -0.30800
O842        O  0.39640212  0.55105921  0.46851057    -0.22700
C843        C  0.37933562  0.54578191  0.48880519    -0.02700
C844        C  0.37636437  0.56689996  0.50730080    -0.17100
H845        H  0.39263666  0.61812834  0.52796828     0.20900
H846        H  0.43503337  0.58073231  0.44218503     0.19300
H847        H  0.46959822  0.62613737  0.44982388     0.19200
H848        H  0.36447562  0.56754062  0.52591874     0.15100
C849        C  0.70973287  0.50141691  0.40784277     0.30500
C850        C  0.70597899  0.50343111  0.37951187    -0.35800
C851        C  0.71989586  0.52418188  0.36653400     0.16500
C852        C  0.73631677  0.54171228  0.38055926     0.22300
C853        C  0.74056829  0.53928705  0.40869849    -0.33900
C854        C  0.72668571  0.51858777  0.42165076     0.16400
O855        O  0.69618424  0.48579161  0.42453727    -0.26000
C856        C  0.70475872  0.49288251  0.44928113     0.06200
C857        C  0.72391595  0.51303475  0.44871866    -0.30800
O858        O  0.74492963  0.56140806  0.36521701    -0.22700
C859        C  0.73419175  0.55634857  0.34094559    -0.02700
C860        C  0.71858034  0.53330363  0.34041606    -0.17100
H861        H  0.69204184  0.49067561  0.36865280     0.20900
H862        H  0.75268568  0.55348727  0.41998720     0.19300
H863        H  0.73267769  0.52363844  0.46586813     0.19200
H864        H  0.70654657  0.52554822  0.32382595     0.15100
C865        C  0.57369498  0.32597499  0.51551748     0.30500
C866        C  0.59727024  0.33782045  0.50543911    -0.35800
C867        C  0.60240252  0.36405940  0.51439479     0.16500
C868        C  0.58564794  0.37767146  0.53223055     0.22300
C869        C  0.56245490  0.36563525  0.54279425    -0.33900
C870        C  0.55724874  0.33950197  0.53372217     0.16400
O871        O  0.56301070  0.30325161  0.50686014    -0.26000
C872        C  0.53952748  0.30213330  0.51989130     0.06200
C873        C  0.53509969  0.32407199  0.53703690    -0.30800
O874        O  0.59332800  0.40259132  0.53646024    -0.22700
C875        C  0.61533200  0.40496948  0.52116420    -0.02700
C876        C  0.62199369  0.38161958  0.50708612    -0.17100
H877        H  0.60995428  0.32783454  0.49050968     0.20900
H878        H  0.54871625  0.37636297  0.55609617     0.19300
H879        H  0.51694263  0.32916426  0.54809615     0.19200
H880        H  0.63855504  0.37828926  0.49305862     0.15100
C881        C  0.57367650  0.61706161  0.49208322     0.30500
C882        C  0.58231412  0.59355501  0.47912384    -0.35800
C883        C  0.59847358  0.57700639  0.49456052     0.16500
C884        C  0.60632103  0.58337017  0.52081382     0.22300
C885        C  0.59796334  0.60724653  0.53372246    -0.33900
C886        C  0.58116937  0.62364607  0.51840044     0.16400
O887        O  0.55526456  0.63295412  0.48271455    -0.26000
C888        C  0.55069862  0.65029017  0.50301676     0.06200
C889        C  0.56637605  0.64553384  0.52585076    -0.30800
O890        O  0.62019694  0.56402949  0.53192482    -0.22700
C891        C  0.62080441  0.54502198  0.51258223    -0.02700
C892        C  0.60767708  0.55208865  0.48893129    -0.17100
H893        H  0.57547256  0.58774951  0.45897642     0.20900
H894        H  0.60295320  0.61195232  0.55471928     0.19300
H895        H  0.56492415  0.65489209  0.54587751     0.19200
H896        H  0.60494486  0.54034279  0.47042985     0.15100
C897        C  0.77319666  0.50823898  0.92624007     0.30500
C898        C  0.75864492  0.48532298  0.91878142    -0.35800
C899        C  0.75919278  0.47843375  0.89089295     0.16500
C900        C  0.77271898  0.49337120  0.87161506     0.22300
C901        C  0.78675808  0.51657912  0.87897911    -0.33900
C902        C  0.78659234  0.52321597  0.90689020     0.16400
O903        O  0.77889480  0.51580864  0.95143115    -0.26000
C904        C  0.79618291  0.53578127  0.94814678     0.06200
C905        C  0.80145012  0.54150476  0.92089310    -0.30800
O906        O  0.77268333  0.48204353  0.84716419    -0.22700
C907        C  0.75899247  0.45956149  0.85078718    -0.02700
C908        C  0.75001688  0.45624564  0.87755155    -0.17100
H909        H  0.74910887  0.47275611  0.93388576     0.20900
H910        H  0.79843871  0.52770655  0.86421490     0.19300
H911        H  0.81612967  0.55526885  0.91268394     0.19200
H912        H  0.73941707  0.43938795  0.88612910     0.15100
C913        C  0.73254854  0.42437053  0.66736110     0.30500
C914        C  0.73139783  0.41647420  0.63966613    -0.35800
C915        C  0.72028374  0.43498407  0.62178142     0.16500
C916        C  0.71086594  0.45942973  0.63068016     0.22300
C917        C  0.71240555  0.46743635  0.65815876    -0.33900
C918        C  0.72353509  0.44906272  0.67592593     0.16400
O919        O  0.74087660  0.40987753  0.68791165    -0.26000
C920        C  0.73720822  0.42564659  0.70976361     0.06200
C921        C  0.72659922  0.45026030  0.70348332    -0.30800
O922        O  0.69942619  0.47284547  0.61112878    -0.22700
C923        C  0.70175322  0.45705709  0.58922271    -0.02700
C924        C  0.71470737  0.43323380  0.59451149    -0.17100
H925        H  0.73803386  0.39703821  0.63268994     0.20900
H926        H  0.70472207  0.48641375  0.66533449     0.19300
H927        H  0.72124150  0.46640209  0.71734814     0.19200
H928        H  0.71812888  0.41654579  0.58069031     0.15100
C929        C  0.78690633  0.08402291  0.90180080     0.30500
C930        C  0.78013610  0.10318665  0.88244218    -0.35800
C931        C  0.77590789  0.09358573  0.85571163     0.16500
C932        C  0.77807297  0.06696357  0.84858759     0.22300
C933        C  0.78412716  0.04778440  0.86803245    -0.33900
C934        C  0.78847917  0.05737035  0.89463752     0.16400
O935        O  0.79501046  0.08881521  0.92702767    -0.26000
C936        C  0.80167906  0.06487751  0.93602636     0.06200
C937        C  0.79777738  0.04461320  0.91683948    -0.30800
O938        O  0.77599154  0.06266459  0.82206053    -0.22700
C939        C  0.77224797  0.08679513  0.81203058    -0.02700
C940        C  0.77179977  0.10680826  0.83199287    -0.17100
H941        H  0.77966748  0.12423663  0.88750098     0.20900
H942        H  0.78672449  0.02700906  0.86248358     0.19300
H943        H  0.80308758  0.02382079  0.91831516     0.19200
H944        H  0.77017591  0.12808658  0.82921464     0.15100
C945        C  0.74011538  0.00902358  0.58943569     0.30500
C946        C  0.75855046  0.02853931  0.59782880    -0.35800
C947        C  0.76342295  0.03005371  0.62597030     0.16500
C948        C  0.75115865  0.01331554  0.64455258     0.22300
C949        C  0.73353401  0.99314264  0.63601693    -0.33900
C950        C  0.72840496  0.99185159  0.60794766     0.16400
O951        O  0.72924800  0.00717619  0.56507159    -0.26000
C952        C  0.71048511  0.98853134  0.56802858     0.06200
C953        C  0.70922790  0.97807313  0.59414922    -0.30800
O954        O  0.75448422  0.02136409  0.67003840    -0.22700
C955        C  0.76918205  0.04338056  0.66778317    -0.02700
C956        C  0.77573152  0.04952352  0.64089159    -0.17100
H957        H  0.76667431  0.04304281  0.58375845     0.20900
H958        H  0.72269850  0.98092438  0.65052235     0.19300
H959        H  0.69463899  0.96423401  0.60238983     0.19200
H960        H  0.78522293  0.06747372  0.63336247     0.15100
C961        C  0.22447213  0.05812009  0.86727962     0.30500
C962        C  0.22638260  0.04705176  0.84088199    -0.35800
C963        C  0.23806385  0.06332953  0.82097948     0.16500
C964        C  0.24753637  0.08867957  0.82669897     0.22300
C965        C  0.24613673  0.09954606  0.85328120    -0.33900
C966        C  0.23409956  0.08338185  0.87315759     0.16400
O967        O  0.21136158  0.04764645  0.88801267    -0.26000
C968        C  0.21253882  0.06637294  0.90744156     0.06200
C969        C  0.22662106  0.08900575  0.89950595    -0.30800
O970        O  0.25507459  0.10140548  0.80446526    -0.22700
C971        C  0.25039140  0.08395293  0.78434022    -0.02700
C972        C  0.23998244  0.05986961  0.79340383    -0.17100
H973        H  0.21790072  0.02771967  0.83587718     0.20900
H974        H  0.25252236  0.11976363  0.85779027     0.19300
H975        H  0.22926714  0.10752085  0.91079053     0.19200
H976        H  0.23322925  0.04297126  0.78127597     0.15100
C977        C  0.25045375  0.03471703  0.59949240     0.30500
C978        C  0.24907417  0.03291418  0.57090875    -0.35800
C979        C  0.26162038  0.01082971  0.55869159     0.16500
C980        C  0.27438978  0.99166206  0.57366484     0.22300
C981        C  0.27481452  0.99290526  0.60228609    -0.33900
C982        C  0.26264326  0.01518259  0.61444604     0.16400
O983        O  0.24399623  0.05569327  0.61460003    -0.26000
C984        C  0.25203656  0.04941742  0.63949989     0.06200
C985        C  0.26355606  0.02438384  0.64069390    -0.30800
O986        O  0.28939070  0.97597375  0.55826047    -0.22700
C987        C  0.28614881  0.98509862  0.53316038    -0.02700
C988        C  0.26865058  0.00639653  0.53206775    -0.17100
H989        H  0.24094250  0.04883204  0.55890872     0.20900
H990        H  0.28605621  0.97884845  0.61408016     0.19300
H991        H  0.27315818  0.01528435  0.65791432     0.19200
H992        H  0.26471771  0.01901630  0.51481629     0.15100
C993        C  0.11796021  0.20599363  0.70795330     0.30500
C994        C  0.14191647  0.20235054  0.69323927    -0.35800
C995        C  0.15567839  0.17872404  0.69821140     0.16500
C996        C  0.14632982  0.15975062  0.71617153     0.22300
C997        C  0.12209739  0.16319490  0.73056994    -0.33900
C998        C  0.10842813  0.18699461  0.72578570     0.16400
O999        O  0.10403326  0.22814216  0.70920114    -0.26000
C1000       C  0.08500685  0.22329955  0.72775171     0.06200
C1001       C  0.08674297  0.19793520  0.73876274    -0.30800
O1002       O  0.16348371  0.14021885  0.71936213    -0.22700
C1003       C  0.18409466  0.14683764  0.70331903    -0.02700
C1004       C  0.18031826  0.17055833  0.68959965    -0.17100
H1005       H  0.15004173  0.21760004  0.68003439     0.20900
H1006       H  0.11511524  0.14897453  0.74552300     0.19300
H1007       H  0.07535828  0.18982569  0.75570040     0.19200
H1008       H  0.19418255  0.18082305  0.67617873     0.15100
C1009       C  0.86175597  0.34852571  0.79930868     0.30500
C1010       C  0.87856288  0.32957442  0.81082037    -0.35800
C1011       C  0.90390330  0.32679595  0.79856581     0.16500
C1012       C  0.91213405  0.34141800  0.77627612     0.22300
C1013       C  0.89550352  0.36081372  0.76511616    -0.33900
C1014       C  0.87018266  0.36367923  0.77746472     0.16400
O1015       O  0.83664568  0.35308606  0.80638029    -0.26000
C1016       C  0.82892556  0.37154731  0.78894595     0.06200
C1017       C  0.84896805  0.37894476  0.77054495    -0.30800
O1018       O  0.93451206  0.33227871  0.76514010    -0.22700
C1019       C  0.94098823  0.31180466  0.78074026    -0.02700
C1020       C  0.92272236  0.30778843  0.80202142    -0.17100
H1021       H  0.87185488  0.31691200  0.82730198     0.20900
H1022       H  0.90128067  0.37179440  0.74707204     0.19300
H1023       H  0.84779852  0.39299214  0.75401272     0.19200
H1024       H  0.92143364  0.29086878  0.81547307     0.15100
C1025       C  0.90454951  0.20527401  0.72367594     0.30500
C1026       C  0.87981190  0.20094894  0.71123405    -0.35800
C1027       C  0.86703988  0.17681191  0.71722681     0.16500
C1028       C  0.87796865  0.15802072  0.73406579     0.22300
C1029       C  0.90294802  0.16219849  0.74622502    -0.33900
C1030       C  0.91566055  0.18649636  0.74039951     0.16400
O1031       O  0.91828736  0.22768962  0.72337530    -0.26000
C1032       C  0.93874909  0.22317385  0.73972133     0.06200
C1033       C  0.93813677  0.19788724  0.75100960    -0.30800
O1034       O  0.86154850  0.13786228  0.73860182    -0.22700
C1035       C  0.83986955  0.14396525  0.72458076    -0.02700
C1036       C  0.84217221  0.16788664  0.71080333    -0.17100
H1037       H  0.87054031  0.21595701  0.69889960     0.20900
H1038       H  0.91127075  0.14808362  0.76025740     0.19300
H1039       H  0.95111845  0.18995389  0.76640973     0.19200
H1040       H  0.82724517  0.17778298  0.69882933     0.15100
C1041       C  0.36005030  0.16623880  0.68634843     0.30500
C1042       C  0.37394438  0.18981873  0.68030946    -0.35800
C1043       C  0.40067791  0.19107921  0.68857479     0.16500
C1044       C  0.41298497  0.17070483  0.70215348     0.22300
C1045       C  0.39932504  0.14667373  0.70731264    -0.33900
C1046       C  0.37255212  0.14535064  0.69891834     0.16400
O1047       O  0.33418001  0.16205805  0.68324254    -0.26000
C1048       C  0.33005822  0.13801265  0.69364604     0.06200
C1049       C  0.35324343  0.12656762  0.70347901    -0.30800
O1050       O  0.43620958  0.17814061  0.71261271    -0.22700
C1051       C  0.43898136  0.20349941  0.70528316    -0.02700
C1052       C  0.41761627  0.21227118  0.68982268    -0.17100
H1053       H  0.36410201  0.20669600  0.67142539     0.20900
H1054       H  0.40830637  0.13087061  0.71879242     0.19300
H1055       H  0.35522004  0.10784725  0.71395101     0.19200
H1056       H  0.41349620  0.23246379  0.68371130     0.15100
C1057       C  0.62328176  0.29264483  0.78429278     0.30500
C1058       C  0.64879596  0.29509114  0.79569623    -0.35800
C1059       C  0.65975456  0.32086830  0.79652147     0.16500
C1060       C  0.64637651  0.34280797  0.78710010     0.22300
C1061       C  0.62070425  0.34038259  0.77600380    -0.33900
C1062       C  0.60989496  0.31452757  0.77483879     0.16400
O1063       O  0.61067639  0.27011135  0.77881355    -0.26000
C1064       C  0.58869054  0.27751442  0.76591653     0.06200
C1065       C  0.58734908  0.30499683  0.76261456    -0.30800
O1066       O  0.66147884  0.36444660  0.78699314    -0.22700
C1067       C  0.68484845  0.35623295  0.79631331    -0.02700
C1068       C  0.68488635  0.32935895  0.80279706    -0.17100
H1069       H  0.65993759  0.27789461  0.80201184     0.20900
H1070       H  0.61053859  0.35722103  0.76743582     0.19300
H1071       H  0.57294553  0.31612609  0.75113907     0.19200
H1072       H  0.70155741  0.31745119  0.80921947     0.15100
C1073       C  0.65571033  0.14033733  0.71659020     0.30500
C1074       C  0.62874878  0.14043121  0.72487920    -0.35800
C1075       C  0.61335424  0.16166488  0.71554509     0.16500
C1076       C  0.62384744  0.18131897  0.69905238     0.22300
C1077       C  0.65062197  0.18088770  0.69027375    -0.33900
C1078       C  0.66603518  0.15988371  0.69986110     0.16400
O1079       O  0.67424589  0.12400766  0.72519176    -0.26000
C1080       C  0.69668532  0.13327070  0.71385392     0.06200
C1081       C  0.69280715  0.15552151  0.69782587    -0.30800
O1082       O  0.60779819  0.20182352  0.69712636    -0.22700
C1083       C  0.58653597  0.19534276  0.71229653    -0.02700
C1084       C  0.58877311  0.17033583  0.72398140    -0.17100
H1085       H  0.62082732  0.12602448  0.73914587     0.20900
H1086       H  0.65934058  0.19695867  0.67857051     0.19300
H1087       H  0.70768739  0.16733728  0.68716760     0.19200
H1088       H  0.57618663  0.16184039  0.73980278     0.15100
C1089       C  0.25319695  0.49611736  0.86200923     0.30500
C1090       C  0.23763678  0.51823944  0.86923216    -0.35800
C1091       C  0.23512636  0.52375854  0.89726354     0.16500
C1092       C  0.24755891  0.50885650  0.91687911     0.22300
C1093       C  0.26362110  0.48701624  0.90959877    -0.33900
C1094       C  0.26564297  0.48111977  0.88153863     0.16400
O1095       O  0.25509383  0.48542228  0.83737892    -0.26000
C1096       C  0.26879778  0.46324366  0.84109278     0.06200
C1097       C  0.27609441  0.45952737  0.86811947    -0.30800
O1098       O  0.23958411  0.51526719  0.94187509    -0.22700
C1099       C  0.22178608  0.53438686  0.93818087    -0.02700
C1100       C  0.21834548  0.54064540  0.91087104    -0.17100
H1101       H  0.22665862  0.52917664  0.85415928     0.20900
H1102       H  0.27227299  0.47434995  0.92483156     0.19300
H1103       H  0.28596313  0.44255877  0.87682002     0.19200
H1104       H  0.20384967  0.55393071  0.90222756     0.15100
C1105       C  0.28675801  0.43469962  0.65741478     0.30500
C1106       C  0.27957195  0.43180537  0.62991502    -0.35800
C1107       C  0.29605393  0.44490668  0.61096589     0.16500
C1108       C  0.31827144  0.45961596  0.61847750     0.22300
C1109       C  0.32517430  0.46293131  0.64603875    -0.33900
C1110       C  0.30850932  0.45005867  0.66502153     0.16400
O1111       O  0.27479500  0.42332505  0.67842742    -0.26000
C1112       C  0.28884921  0.43184732  0.69975644     0.06200
C1113       C  0.30994745  0.44863966  0.69271489    -0.30800
O1114       O  0.33160714  0.46896902  0.59721974    -0.22700
C1115       C  0.31753490  0.46035967  0.57590907    -0.02700
C1116       C  0.29513902  0.44545896  0.58321289    -0.17100
H1117       H  0.26258617  0.41981773  0.62369108     0.20900
H1118       H  0.34254350  0.47437616  0.65221451     0.19300
H1119       H  0.32465197  0.45775678  0.70600968     0.19200
H1120       H  0.28077113  0.43578915  0.56993267     0.15100
C1121       C  0.40654057  0.29997279  0.77795829     0.30500
C1122       C  0.38061777  0.30245475  0.78878443    -0.35800
C1123       C  0.36826947  0.32704292  0.78507220     0.16500
C1124       C  0.38073660  0.34797929  0.77197208     0.22300
C1125       C  0.40683965  0.34557803  0.76131730    -0.33900
C1126       C  0.41912970  0.32080064  0.76478965     0.16400
O1127       O  0.42002337  0.27764660  0.77589416    -0.26000
C1128       C  0.44177826  0.28409112  0.76151137     0.06200
C1129       C  0.44235673  0.31077671  0.75405783    -0.30800
O1130       O  0.36483262  0.36861212  0.76937425    -0.22700
C1131       C  0.34188768  0.36066387  0.78078377    -0.02700
C1132       C  0.34284172  0.33496983  0.79087631    -0.17100
H1133       H  0.37025178  0.28585653  0.79813342     0.20900
H1134       H  0.41638378  0.36146575  0.74999837     0.19300
H1135       H  0.45630284  0.32051022  0.74030564     0.19200
H1136       H  0.32691560  0.32357954  0.80039724     0.15100
C1137       C  0.15793350  0.36721968  0.77464862     0.30500
C1138       C  0.13258110  0.36598291  0.76246378    -0.35800
C1139       C  0.11615356  0.34433795  0.76995985     0.16500
C1140       C  0.12419183  0.32541377  0.78828912     0.22300
C1141       C  0.14917335  0.32697277  0.80083941    -0.33900
C1142       C  0.16559229  0.34834333  0.79318962     0.16400
O1143       O  0.17758157  0.38396502  0.76856857    -0.26000
C1144       C  0.19798449  0.37553719  0.78338960     0.06200
C1145       C  0.19157622  0.35357648  0.79917810    -0.30800
O1146       O  0.10775344  0.30488496  0.78939876    -0.22700
C1147       C  0.08853445  0.31069875  0.77196640    -0.02700
C1148       C  0.09265825  0.33508306  0.75924918    -0.17100
H1149       H  0.12672500  0.37996411  0.74702801     0.20900
H1150       H  0.15603443  0.31157736  0.81429229     0.19300
H1151       H  0.20458814  0.34232712  0.81216519     0.19200
H1152       H  0.08164349  0.34322888  0.74242391     0.15100
loop_ 
_geom_bond_atom_site_label_1 
_geom_bond_atom_site_label_2 
_geom_bond_distance 
_geom_bond_site_symmetry_2 
_ccdc_geom_bond_type 
In1           O3   2.247       .  S
In1           O4   2.231       .  S
In1          O12   2.251       .  S
In1           O6   2.262       .  S
In1           O8   2.263       .  S
In1           O9   2.233       .  S
In1          O10   2.246       .  S
In1          O13   2.262       .  S
C2            O8   1.262       .  A
C2           O10   1.257       .  A
C2         C1131   1.469       .  S
O3           C11   1.262       .  A
O4           C11   1.260       .  A
C5           O12   1.262       .  A
C5            O6   1.259       .  A
C5         C1144   1.473       .  S
C7            O9   1.255       .  A
C7           O13   1.258       .  A
C7         C1096   1.462       .  S
C11        C1112   1.463       .  S
C14        C1128   1.479       .  S
C14          C15   1.392       .  A
C14          C19   1.412       .  A
C15          C16   1.398       .  A
C15          H34   1.086       .  S
C16        C1051   1.487       .  S
C16          C17   1.419       .  A
C17          C18   1.426       .  A
C17          C24   1.406       .  A
C18          C19   1.423       .  A
C18          C23   1.423       .  A
C19          C20   1.403       .  A
C20          C21   1.391       .  A
C20          H30   1.082       .  S
C21          C22   1.406       .  A
C21          H31   1.080       .  S
C22          C23   1.426       .  A
C22          C29   1.418       .  A
C23          C26   1.422       .  A
C24          C25   1.399       .  A
C24          H32   1.082       .  S
C25          C26   1.407       .  A
C25          H33   1.083       .  S
C26          C27   1.415       .  A
C27        C1083   1.477       .  S
C27          C28   1.396       .  A
C28          C29   1.394       .  A
C28          H35   1.086       .  S
C29        C1064   1.486       .  S
C36        C1000   1.482       .  S
C36          C37   1.395       .  A
C36          C41   1.415       .  A
C37          C38   1.397       .  A
C37          H56   1.086       .  S
C38        C1147   1.478       .  S
C38          C39   1.416       .  A
C39          C40   1.422       .  A
C39          C46   1.407       .  A
C40          C41   1.425       .  A
C40          C45   1.422   1_455  A
C41          C42   1.404       .  A
C42          C43   1.392   1_455  A
C42          H52   1.082       .  S
C43          C44   1.405       .  A
C43          H53   1.082       .  S
C44          C45   1.422       .  A
C44          C51   1.412       .  A
C45          C48   1.424       .  A
C46          C47   1.399       .  A
C46          H54   1.083       .  S
C47          C48   1.405   1_455  A
C47          H55   1.083   1_455  S
C48          C49   1.417       .  A
C49        C1019   1.480       .  S
C49          C50   1.396       .  A
C50          C51   1.392       .  A
C50          H57   1.086       .  S
C51        C1032   1.474       .  S
In58         O60   2.239       .  S
In58         O61   2.247       .  S
In58         O69   2.258       .  S
In58         O63   2.252       .  S
In58         O65   2.265       .  S
In58         O66   2.255       .  S
In58         O67   2.254       .  S
In58         O70   2.246       .  S
C59          O65   1.260       .  A
C59          O67   1.258       .  A
C59        C1048   1.473       .  S
O60          C68   1.261       .  A
O61          C68   1.262       .  A
C62          O69   1.262       .  A
C62          O63   1.259       .  A
C62        C1003   1.471       .  S
C64          O66   1.257       .  A
C64          O70   1.257       .  A
C64         C984   1.464       .  S
C68         C971   1.465       .  S
In71         O73   2.243       .  S
In71         O74   2.241       .  S
In71         O82   2.249       .  S
In71         O76   2.254       .  S
In71         O78   2.245       .  S
In71         O79   2.251       .  S
In71         O80   2.235       .  S
In71         O83   2.246       .  S
C72          O78   1.261       .  A
C72          O80   1.262       .  A
C72        C1035   1.464       .  S
O73          C81   1.262       .  A
O74          C81   1.262       .  A
C75          O82   1.257       .  A
C75          O76   1.259       .  A
C75        C1080   1.467       .  S
C77          O79   1.257       .  A
C77          O83   1.256       .  A
C77         C955   1.463       .  S
C81         C939   1.466       .  S
In84         O86   2.252       .  S
In84         O87   2.248       .  S
In84         O95   2.238       .  S
In84         O89   2.254       .  S
In84         O91   2.248       .  S
In84         O92   2.248       .  S
In84         O93   2.259       .  S
In84         O96   2.265       .  S
C85          O91   1.257       .  A
C85          O93   1.258       .  A
C85         C907   1.466       .  S
O86          C94   1.262       .  A
O87          C94   1.259       .  A
C88          O95   1.262       .  A
C88          O89   1.262       .  A
C88         C920   1.469       .  S
C90          O92   1.257       .  A
C90          O96   1.260       .  A
C90        C1016   1.471       .  S
C94        C1067   1.469       .  S
In97         O99   2.236       .  S
In97        O100   2.265       .  S
In97        O108   2.241       .  S
In97        O102   2.265       .  S
In97        O104   2.265       .  S
In97        O105   2.258       .  S
In97        O106   2.252       .  S
In97        O109   2.239       .  S
C98         O104   1.260       .  A
C98         O106   1.261       .  A
C98         C891   1.474       .  S
O99         C107   1.259       .  A
O100        C107   1.261       .  A
C101        O108   1.258       .  A
C101        O102   1.262       .  A
C101        C875   1.470       .  S
C103        O105   1.262       .  A
C103        O109   1.257       .  A
C103        C856   1.467       .  S
C107        C923   1.468       .  S
In110       O112   2.249       .  S
In110       O113   2.234       .  S
In110       O121   2.248       .  S
In110       O115   2.259       .  S
In110       O117   2.251       .  S
In110       O118   2.230       .  S
In110       O119   2.261       .  S
In110       O122   2.244       .  S
C111        O117   1.259       .  A
C111        O119   1.260       .  A
C111        C843   1.471       .  S
O112        C120   1.257       .  A
O113        C120   1.257       .  A
C114        O121   1.257       .  A
C114        O115   1.262       .  A
C114        C827   1.468       .  S
C116        O118   1.262       .  A
C116        O122   1.264       .  A
C116       C1115   1.465       .  S
C120        C811   1.460       .  S
C123        C872   1.483       .  S
C123        C124   1.396       .  A
C123        C128   1.415       .  A
C124        C125   1.396       .  A
C124        H143   1.086       .  S
C125        C824   1.481       .  S
C125        C126   1.416       .  A
C126        C127   1.424       .  A
C126        C133   1.406       .  A
C127        C128   1.424       .  A
C127        C132   1.422       .  A
C128        C129   1.406       .  A
C129        C130   1.396       .  A
C129        H139   1.082       .  S
C130        C131   1.405       .  A
C130        H140   1.083       .  S
C131        C132   1.422       .  A
C131        C138   1.414       .  A
C132        C135   1.423       .  A
C133        C134   1.396       .  A
C133        H141   1.082       .  S
C134        C135   1.405       .  A
C134        H142   1.083       .  S
C135        C136   1.415       .  A
C136        C779   1.477       .  S
C136        C137   1.393       .  A
C137        C138   1.396       .  A
C137        H144   1.086       .  S
C138        C795   1.477       .  S
In145       O147   2.257   1_565  S
In145       O148   2.277   1_565  S
In145       O156   2.231       .  S
In145       O150   2.242       .  S
In145       O152   2.244       .  S
In145       O153   2.254       .  S
In145       O154   2.248       .  S
In145       O157   2.242       .  S
C146        O152   1.259       .  A
C146        O154   1.258       .  A
C146        C744   1.463       .  S
O147        C155   1.255       .  A
O148        C155   1.259       .  A
C149        O156   1.260       .  A
C149        O150   1.261       .  A
C149        C987   1.461       .  S
C151        O153   1.261       .  A
C151        O157   1.258       .  A
C151        C763   1.466       .  S
C155        C776   1.474       .  S
In158       O160   2.243       .  S
In158       O161   2.230       .  S
In158       O169   2.241   1_565  S
In158       O163   2.272   1_565  S
In158       O165   2.246       .  S
In158       O166   2.246       .  S
In158       O167   2.261       .  S
In158       O170   2.249       .  S
C159        O165   1.258       .  A
C159        O167   1.262       .  A
C159        C731   1.468       .  S
O160        C168   1.264       .  A
O161        C168   1.263       .  A
C162        O169   1.257       .  A
C162        O163   1.260       .  A
C162        C792   1.470       .  S
C164        O166   1.256       .  A
C164        O170   1.257       .  A
C164        C952   1.462       .  S
C168        C715   1.465       .  S
C171        C888   1.485       .  S
C171        C172   1.399       .  A
C171        C176   1.419       .  A
C172        C173   1.396       .  A
C172        H191   1.086       .  S
C173        C840   1.480       .  S
C173        C174   1.412       .  A
C174        C175   1.423       .  A
C174        C181   1.406       .  A
C175        C176   1.425       .  A
C175        C180   1.421       .  A
C176        C177   1.406       .  A
C177        C178   1.398       .  A
C177        H187   1.082       .  S
C178        C179   1.406       .  A
C178        H188   1.082       .  S
C179        C180   1.422       .  A
C179        C186   1.417       .  A
C180        C183   1.423       .  A
C181        C182   1.394       .  A
C181        H189   1.083       .  S
C182        C183   1.404       .  A
C182        H190   1.083       .  S
C183        C184   1.412       .  A
C184        C760   1.473       .  S
C184        C185   1.391       .  A
C185        C186   1.394       .  A
C185        H192   1.087       .  S
C186        C728   1.476       .  S
C193        C699   1.483       .  S
C193        C194   1.395       .  A
C193        C198   1.416       .  A
C194        C195   1.393       .  A
C194        H213   1.086       .  S
C195        C680   1.485       .  S
C195        C196   1.413       .  A
C196        C197   1.427       .  A
C196        C203   1.404       .  A
C197        C198   1.426       .  A
C197        C202   1.421       .  A
C198        C199   1.405       .  A
C199        C200   1.396       .  A
C199        H209   1.079       .  S
C200        C201   1.405       .  A
C200        H210   1.081       .  S
C201        C202   1.426       .  A
C201        C208   1.419       .  A
C202        C205   1.423       .  A
C203        C204   1.394       .  A
C203        H211   1.083       .  S
C204        C205   1.405       .  A
C204        H212   1.083       .  S
C205        C206   1.411       .  A
C206        C651   1.477       .  S
C206        C207   1.394       .  A
C207        C208   1.395       .  A
C207        H214   1.086       .  S
C208        C664   1.484       .  S
C215        C632   1.480       .  S
C215        C216   1.396       .  A
C215        C220   1.414       .  A
C216        C217   1.395       .  A
C216        H235   1.086       .  S
C217        C616   1.484       .  S
C217        C218   1.417       .  A
C218        C219   1.425       .  A
C218        C225   1.405       .  A
C219        C220   1.423       .  A
C219        C224   1.422       .  A
C220        C221   1.405       .  A
C221        C222   1.396       .  A
C221        H231   1.083       .  S
C222        C223   1.407   1_655  A
C222        H232   1.082   1_655  S
C223        C224   1.423   1_455  A
C223        C230   1.416       .  A
C224        C227   1.423   1_655  A
C225        C226   1.394       .  A
C225        H233   1.081       .  S
C226        C227   1.405   1_655  A
C226        H234   1.082   1_655  S
C227        C228   1.415       .  A
C228        C587   1.483       .  S
C228        C229   1.397       .  A
C229        C230   1.395       .  A
C229        H236   1.086       .  S
C230        C603   1.478       .  S
In237       O239   2.247       .  S
In237       O240   2.253       .  S
In237       O248   2.253       .  S
In237       O242   2.248       .  S
In237       O244   2.234       .  S
In237       O245   2.243       .  S
In237       O246   2.248       .  S
In237       O249   2.250       .  S
C238        O244   1.261       .  A
C238        O246   1.260       .  A
C238        C747   1.464       .  S
O239        C247   1.257       .  A
O240        C247   1.260       .  A
C241        O248   1.258       .  A
C241        O242   1.258       .  A
C241        C571   1.465       .  S
C243        O245   1.262       .  A
C243        O249   1.261       .  A
C243        C667   1.469       .  S
C247        C600   1.466       .  S
In250       O252   2.243       .  S
In250       O253   2.240       .  S
In250       O261   2.251       .  S
In250       O255   2.254       .  S
In250       O257   2.234       .  S
In250       O258   2.239       .  S
In250       O259   2.252       .  S
In250       O262   2.253       .  S
C251        O257   1.258       .  A
C251        O259   1.262       .  A
C251        C648   1.464       .  S
O252        C260   1.258       .  A
O253        C260   1.258       .  A
C254        O261   1.261       .  A
C254        O255   1.260       .  A
C254        C584   1.470       .  S
C256        O258   1.260       .  A
C256        O262   1.261       .  A
C256        C552   1.467       .  S
C260        C808   1.460       .  S
In263       O265   2.234       .  S
In263       O266   2.256       .  S
In263       O274   2.250       .  S
In263       O268   2.264       .  S
In263       O270   2.256       .  S
In263       O271   2.255       .  S
In263       O272   2.235       .  S
In263       O275   2.239       .  S
C264        O270   1.259       .  A
C264        O272   1.261       .  A
C264        C696   1.466       .  S
O265        C273   1.258       .  A
O266        C273   1.261       .  A
C267        O274   1.258       .  A
C267        O268   1.261       .  A
C267        C635   1.472       .  S
C269        O271   1.260       .  A
C269        O275   1.258       .  A
C269        C536   1.465       .  S
C273        C712   1.464       .  S
In276       O278   2.246       .  S
In276       O279   2.261       .  S
In276       O287   2.244       .  S
In276       O281   2.249       .  S
In276       O283   2.242       .  S
In276       O284   2.252       .  S
In276       O285   2.268       .  S
In276       O288   2.264       .  S
C277        O283   1.256       .  A
C277        O285   1.259       .  A
C277        C859   1.467       .  S
O278        C286   1.263       .  A
O279        C286   1.263       .  A
C280        O287   1.262       .  A
C280        O281   1.260       .  A
C280        C523   1.467       .  S
C282        O284   1.259       .  A
C282        O288   1.258       .  A
C282        C683   1.471       .  S
C286        C619   1.474       .  S
In289       O291   2.251   1_554  S
In289       O292   2.248   1_554  S
In289       O300   2.271       .  S
In289       O294   2.262   1_554  S
In289       O296   2.263       .  S
In289       O297   2.262       .  S
In289       O298   2.244   1_554  S
In289       O301   2.229       .  S
C290        O296   1.263       .  A
C290        O298   1.259   1_554  A
C290        C504   1.471       .  S
O291        C299   1.257       .  A
O292        C299   1.258       .  A
C293        O300   1.257       .  A
C293        O294   1.259   1_554  A
C293        C491   1.477       .  S
C295        O297   1.260       .  A
C295        O301   1.258       .  A
C295        C520   1.463       .  S
C299        C904   1.464       .  S
In302       O304   2.245       .  S
In302       O305   2.248       .  S
In302       O313   2.246   1_556  S
In302       O307   2.254       .  S
In302       O309   2.237   1_556  S
In302       O310   2.267   1_556  S
In302       O311   2.271       .  S
In302       O314   2.224   1_556  S
C303        O309   1.256   1_556  A
C303        O311   1.262       .  A
C303        C456   1.468       .  S
O304        C312   1.259       .  A
O305        C312   1.258       .  A
C306        O313   1.261   1_556  A
C306        O307   1.260       .  A
C306        C475   1.469       .  S
C308        O310   1.262       .  A
C308        O314   1.258       .  A
C308        C555   1.467       .  S
C312       C1099   1.464       .  S
C315        C488   1.481       .  S
C315        C316   1.392   1_655  A
C315        C320   1.415       .  A
C316        C317   1.395       .  A
C316        H335   1.086       .  S
C317        C459   1.480   1_554  S
C317        C318   1.417       .  A
C318        C319   1.424       .  A
C318        C325   1.407       .  A
C319        C320   1.427   1_455  A
C319        C324   1.423       .  A
C320        C321   1.404       .  A
C321        C322   1.396       .  A
C321        H331   1.083       .  S
C322        C323   1.406       .  A
C322        H332   1.083       .  S
C323        C324   1.422   1_655  A
C323        C330   1.413       .  A
C324        C327   1.426       .  A
C325        C326   1.397       .  A
C325        H333   1.081   1_554  S
C326        C327   1.404       .  A
C326        H334   1.083   1_554  S
C327        C328   1.418       .  A
C328        C427   1.482   1_554  S
C328        C329   1.393       .  A
C329        C330   1.394   1_455  A
C329        H336   1.087       .  S
C330        C443   1.472       .  S
In337       O339   2.263       .  S
In337       O340   2.244       .  S
In337       O348   2.248       .  S
In337       O342   2.239   1_556  S
In337       O344   2.265       .  S
In337       O345   2.260       .  S
In337       O346   2.230       .  S
In337       O349   2.262       .  S
C338        O344   1.261       .  A
C338        O346   1.256       .  A
C338        C968   1.464       .  S
O339        C347   1.260       .  A
O340        C347   1.256       .  A
C341        O348   1.261   1_554  A
C341        O342   1.261       .  A
C341        C568   1.464       .  S
C343        O345   1.258       .  A
C343        O349   1.260       .  A
C343        C424   1.473       .  S
C347        C408   1.466   1_545  S
In350       O352   2.229   1_554  S
In350       O353   2.266   1_554  S
In350       O361   2.272       .  S
In350       O355   2.256   1_554  S
In350       O357   2.245   1_554  S
In350       O358   2.257       .  S
In350       O359   2.258       .  S
In350       O362   2.243       .  S
C351        O357   1.260   1_554  A
C351        O359   1.258       .  A
C351        C440   1.468       .  S
O352        C360   1.258       .  A
O353        C360   1.261       .  A
C354        O361   1.258       .  A
C354        O355   1.255   1_554  A
C354        C392   1.472   1_545  S
C356        O358   1.258       .  A
C356        O362   1.257       .  A
C356        C539   1.465       .  S
C360        C936   1.467       .  S
C363        C507   1.480       .  S
C363        C364   1.394   1_654  A
C363        C368   1.414   1_554  A
C364        C365   1.395       .  A
C364        H383   1.086   1_556  S
C365        C472   1.481       .  S
C365        C366   1.417       .  A
C366        C367   1.426       .  A
C366        C373   1.406       .  A
C367        C368   1.424   1_455  A
C367        C372   1.422       .  A
C368        C369   1.406       .  A
C369        C370   1.396       .  A
C369        H379   1.083   1_556  S
C370        C371   1.405       .  A
C370        H380   1.083       .  S
C371        C372   1.424   1_655  A
C371        C378   1.415       .  A
C372        C375   1.422       .  A
C373        C374   1.398       .  A
C373        H381   1.082       .  S
C374        C375   1.406       .  A
C374        H382   1.083       .  S
C375        C376   1.415       .  A
C376        C411   1.474       .  S
C376        C377   1.395       .  A
C377        C378   1.392   1_455  A
C377        H384   1.086       .  S
C378        C395   1.477       .  S
C385        C390   1.380   1_556  A
C385        C386   1.405       .  A
C385        O391   1.319       .  A
C386        C387   1.404       .  A
C386        H397   1.082       .  S
C387        C396   1.364       .  A
C387        C388   1.380   1_556  A
C388        C389   1.406       .  A
C388        O394   1.320       .  A
C389        C390   1.404       .  A
C389        H398   1.082       .  S
C390        C393   1.365       .  A
O391        C392   1.331   1_556  A
C392        C393   1.391       .  A
C393        H399   1.082       .  S
O394        C395   1.332   1_554  A
C395        C396   1.391       .  A
C396        H400   1.082       .  S
C401        C406   1.380       .  A
C401        C402   1.404       .  A
C401        O407   1.317       .  A
C402        C403   1.403       .  A
C402        H413   1.082   1_556  S
C403        C412   1.364       .  A
C403        C404   1.380       .  A
C404        C405   1.404       .  A
C404        O410   1.316       .  A
C405        C406   1.401       .  A
C405        H414   1.082       .  S
C406        C409   1.364       .  A
O407        C408   1.330       .  A
C408        C409   1.390       .  A
C409        H415   1.082       .  S
O410        C411   1.331       .  A
C411        C412   1.391       .  A
C412        H416   1.082   1_556  S
C417        C422   1.380       .  A
C417        C418   1.408   1_556  A
C417        O423   1.322   1_556  A
C418        C419   1.407       .  A
C418        H429   1.082       .  S
C419        C428   1.369       .  A
C419        C420   1.380   1_554  A
C420        C421   1.404       .  A
C420        O426   1.317       .  A
C421        C422   1.402       .  A
C421        H430   1.082       .  S
C422        C425   1.363       .  A
O423        C424   1.333   1_554  A
C424        C425   1.390       .  A
C425        H431   1.082       .  S
O426        C427   1.332       .  A
C427        C428   1.393   1_556  A
C428        H432   1.082       .  S
C433        C438   1.380   1_554  A
C433        C434   1.408       .  A
C433        O439   1.322       .  A
C434        C435   1.407       .  A
C434        H445   1.082       .  S
C435        C444   1.367       .  A
C435        C436   1.380   1_554  A
C436        C437   1.399       .  A
C436        O442   1.313       .  A
C437        C438   1.397       .  A
C437        H446   1.082       .  S
C438        C441   1.357       .  A
O439        C440   1.333       .  A
C440        C441   1.387   1_554  A
C441        H447   1.082       .  S
O442        C443   1.328   1_556  A
C443        C444   1.393       .  A
C444        H448   1.082       .  S
C449        C454   1.380   1_554  A
C449        C450   1.406       .  A
C449        O455   1.318       .  A
C450        C451   1.404       .  A
C450        H461   1.082       .  S
C451        C460   1.368       .  A
C451        C452   1.379   1_554  A
C452        C453   1.403       .  A
C452        O458   1.313       .  A
C453        C454   1.400       .  A
C453        H462   1.082       .  S
C454        C457   1.364       .  A
O455        C456   1.331   1_554  A
C456        C457   1.390       .  A
C457        H463   1.082       .  S
O458        C459   1.332       .  A
C459        C460   1.393   1_556  A
C460        H464   1.082       .  S
C465        C470   1.380   1_554  A
C465        C466   1.400       .  A
C465        O471   1.313       .  A
C466        C467   1.398       .  A
C466        H477   1.082       .  S
C467        C476   1.359       .  A
C467        C468   1.380   1_554  A
C468        C469   1.409       .  A
C468        O474   1.322       .  A
C469        C470   1.408       .  A
C469        H478   1.082       .  S
C470        C473   1.371       .  A
O471        C472   1.330   1_554  A
C472        C473   1.395       .  A
C473        H479   1.082       .  S
O474        C475   1.333       .  A
C475        C476   1.388   1_556  A
C476        H480   1.083       .  S
C481        C486   1.379       .  A
C481        C482   1.402   1_554  A
C481        O487   1.314   1_554  A
C482        C483   1.399       .  A
C482        H493   1.082       .  S
C483        C492   1.361       .  A
C483        C484   1.379   1_556  A
C484        C485   1.411       .  A
C484        O490   1.324       .  A
C485        C486   1.410       .  A
C485        H494   1.082       .  S
C486        C489   1.373       .  A
O487        C488   1.330   1_556  A
C488        C489   1.396       .  A
C489        H495   1.082       .  S
O490        C491   1.335       .  A
C491        C492   1.389   1_554  A
C492        H496   1.082       .  S
C497        C502   1.380   1_554  A
C497        C498   1.402       .  A
C497        O503   1.320       .  A
C498        C499   1.403       .  A
C498        H509   1.082       .  S
C499        C508   1.358       .  A
C499        C500   1.380   1_554  A
C500        C501   1.405       .  A
C500        O506   1.322       .  A
C501        C502   1.406       .  A
C501        H510   1.082       .  S
C502        C505   1.363       .  A
O503        C504   1.330       .  A
C504        C505   1.392   1_554  A
C505        H511   1.082       .  S
O506        C507   1.332   1_556  A
C507        C508   1.392       .  A
C508        H512   1.082       .  S
C513        C518   1.381       .  A
C513        C514   1.399       .  A
C513        O519   1.314       .  A
C514        C515   1.398       .  A
C514        H525   1.083       .  S
C515        C524   1.358       .  A
C515        C516   1.381       .  A
C516        C517   1.406       .  A
C516        O522   1.320       .  A
C517        C518   1.405       .  A
C517        H526   1.083       .  S
C518        C521   1.366       .  A
O519        C520   1.327       .  A
C520        C521   1.392       .  A
C521        H527   1.083       .  S
O522        C523   1.332       .  A
C523        C524   1.388       .  A
C524        H528   1.083       .  S
C529        C534   1.381   1_545  A
C529        C530   1.402       .  A
C529        O535   1.319   1_545  A
C530        C531   1.401       .  A
C530        H541   1.082       .  S
C531        C540   1.359       .  A
C531        C532   1.381       .  A
C532        C533   1.402   1_545  A
C532        O538   1.319       .  A
C533        C534   1.402       .  A
C533        H542   1.082       .  S
C534        C537   1.360       .  A
O535        C536   1.329       .  A
C536        C537   1.390       .  A
C537        H543   1.083       .  S
O538        C539   1.330       .  A
C539        C540   1.389       .  A
C540        H544   1.083       .  S
C545        C550   1.381       .  A
C545        C546   1.400       .  A
C545        O551   1.317       .  A
C546        C547   1.399       .  A
C546        H557   1.082       .  S
C547        C556   1.356       .  A
C547        C548   1.381       .  A
C548        C549   1.406       .  A
C548        O554   1.322       .  A
C549        C550   1.405       .  A
C549        H558   1.082       .  S
C550        C553   1.364       .  A
O551        C552   1.329       .  A
C552        C553   1.392       .  A
C553        H559   1.082       .  S
O554        C555   1.332       .  A
C555        C556   1.389       .  A
C556        H560   1.083       .  S
C561        C566   1.381       .  A
C561        C562   1.401       .  A
C561        O567   1.317       .  A
C562        C563   1.401       .  A
C562        H573   1.082       .  S
C563        C572   1.360   1_545  A
C563        C564   1.381   1_545  A
C564        C565   1.403       .  A
C564        O570   1.319       .  A
C565        C566   1.403   1_565  A
C565        H574   1.082       .  S
C566        C569   1.362       .  A
O567        C568   1.329       .  A
C568        C569   1.391       .  A
C569        H575   1.083       .  S
O570        C571   1.330       .  A
C571        C572   1.389       .  A
C572        H576   1.082   1_565  S
C577        C582   1.381       .  A
C577        C578   1.402       .  A
C577        O583   1.319       .  A
C578        C579   1.402       .  A
C578        H589   1.082       .  S
C579        C588   1.358       .  A
C579        C580   1.380       .  A
C580        C581   1.405       .  A
C580        O586   1.321       .  A
C581        C582   1.405       .  A
C581        H590   1.082       .  S
C582        C585   1.364       .  A
O583        C584   1.330       .  A
C584        C585   1.391       .  A
C585        H591   1.082       .  S
O586        C587   1.332       .  A
C587        C588   1.393       .  A
C588        H592   1.083       .  S
C593        C598   1.381       .  A
C593        C594   1.405       .  A
C593        O599   1.319       .  A
C594        C595   1.404       .  A
C594        H605   1.082       .  S
C595        C604   1.366       .  A
C595        C596   1.380       .  A
C596        C597   1.402       .  A
C596        O602   1.315       .  A
C597        C598   1.400       .  A
C597        H606   1.083       .  S
C598        C601   1.361       .  A
O599        C600   1.331       .  A
C600        C601   1.389       .  A
C601        H607   1.083       .  S
O602        C603   1.331       .  A
C603        C604   1.392       .  A
C604        H608   1.082       .  S
C609        C614   1.379       .  A
C609        C610   1.402       .  A
C609        O615   1.316       .  A
C610        C611   1.401       .  A
C610        H621   1.082       .  S
C611        C620   1.361       .  A
C611        C612   1.380       .  A
C612        C613   1.408       .  A
C612        O618   1.322       .  A
C613        C614   1.406       .  A
C613        H622   1.082       .  S
C614        C617   1.368       .  A
O615        C616   1.332       .  A
C616        C617   1.394       .  A
C617        H623   1.082       .  S
O618        C619   1.333       .  A
C619        C620   1.390       .  A
C620        H624   1.082       .  S
C625        C630   1.380       .  A
C625        C626   1.406       .  A
C625        O631   1.322       .  A
C626        C627   1.406       .  A
C626        H637   1.082       .  S
C627        C636   1.364       .  A
C627        C628   1.380       .  A
C628        C629   1.402       .  A
C628        O634   1.320       .  A
C629        C630   1.403       .  A
C629        H638   1.082       .  S
C630        C633   1.359       .  A
O631        C632   1.332       .  A
C632        C633   1.393       .  A
C633        H639   1.083       .  S
O634        C635   1.330       .  A
C635        C636   1.393       .  A
C636        H640   1.082       .  S
C641        C646   1.381       .  A
C641        C642   1.399       .  A
C641        O647   1.318       .  A
C642        C643   1.400       .  A
C642        H653   1.082       .  S
C643        C652   1.354       .  A
C643        C644   1.381       .  A
C644        C645   1.404       .  A
C644        O650   1.322       .  A
C645        C646   1.404       .  A
C645        H654   1.082       .  S
C646        C649   1.361       .  A
O647        C648   1.328       .  A
C648        C649   1.391       .  A
C649        H655   1.082       .  S
O650        C651   1.331       .  A
C651        C652   1.390       .  A
C652        H656   1.083       .  S
C657        C662   1.379       .  A
C657        C658   1.402       .  A
C657        O663   1.315       .  A
C658        C659   1.400       .  A
C658        H669   1.082       .  S
C659        C668   1.361       .  A
C659        C660   1.380       .  A
C660        C661   1.407       .  A
C660        O666   1.321       .  A
C661        C662   1.406       .  A
C661        H670   1.082       .  S
C662        C665   1.368       .  A
O663        C664   1.332       .  A
C664        C665   1.394       .  A
C665        H671   1.082       .  S
O666        C667   1.332       .  A
C667        C668   1.389       .  A
C668        H672   1.082       .  S
C673        C678   1.380       .  A
C673        C674   1.408       .  A
C673        O679   1.325       .  A
C674        C675   1.408       .  A
C674        H685   1.082       .  S
C675        C684   1.367       .  A
C675        C676   1.381       .  A
C676        C677   1.399       .  A
C676        O682   1.317       .  A
C677        C678   1.400       .  A
C677        H686   1.082       .  S
C678        C681   1.354       .  A
O679        C680   1.334       .  A
C680        C681   1.393       .  A
C681        H687   1.083       .  S
O682        C683   1.328       .  A
C683        C684   1.394       .  A
C684        H688   1.082       .  S
C689        C694   1.380       .  A
C689        C690   1.411       .  A
C689        O695   1.322       .  A
C690        C691   1.409       .  A
C690        H701   1.082       .  S
C691        C700   1.373       .  A
C691        C692   1.379       .  A
C692        C693   1.396       .  A
C692        O698   1.308       .  A
C693        C694   1.393       .  A
C693        H702   1.083       .  S
C694        C697   1.355       .  A
O695        C696   1.334       .  A
C696        C697   1.386       .  A
C697        H703   1.083       .  S
O698        C699   1.329       .  A
C699        C700   1.397       .  A
C700        H704   1.082       .  S
C705        C710   1.381       .  A
C705        C706   1.400       .  A
C705        O711   1.316       .  A
C706        C707   1.399       .  A
C706        H717   1.082       .  S
C707        C716   1.358       .  A
C707        C708   1.381       .  A
C708        C709   1.404       .  A
C708        O714   1.319       .  A
C709        C710   1.403       .  A
C709        H718   1.082       .  S
C710        C713   1.363       .  A
O711        C712   1.329       .  A
C712        C713   1.391       .  A
C713        H719   1.083       .  S
O714        C715   1.331       .  A
C715        C716   1.389       .  A
C716        H720   1.083       .  S
C721        C726   1.380       .  A
C721        C722   1.403       .  A
C721        O727   1.316       .  A
C722        C723   1.401       .  A
C722        H733   1.082       .  S
C723        C732   1.363       .  A
C723        C724   1.380       .  A
C724        C725   1.405       .  A
C724        O730   1.319       .  A
C725        C726   1.404       .  A
C725        H734   1.082       .  S
C726        C729   1.365       .  A
O727        C728   1.331       .  A
C728        C729   1.392       .  A
C729        H735   1.082       .  S
O730        C731   1.331       .  A
C731        C732   1.390       .  A
C732        H736   1.082       .  S
C737        C742   1.381       .  A
C737        C738   1.399       .  A
C737        O743   1.316       .  A
C738        C739   1.398       .  A
C738        H749   1.082       .  S
C739        C748   1.357       .  A
C739        C740   1.381       .  A
C740        C741   1.404       .  A
C740        O746   1.319       .  A
C741        C742   1.404       .  A
C741        H750   1.082       .  S
C742        C745   1.362       .  A
O743        C744   1.328       .  A
C744        C745   1.391       .  A
C745        H751   1.083       .  S
O746        C747   1.331       .  A
C747        C748   1.388       .  A
C748        H752   1.083       .  S
C753        C758   1.380       .  A
C753        C754   1.403       .  A
C753        O759   1.317       .  A
C754        C755   1.402       .  A
C754        H765   1.082       .  S
C755        C764   1.362       .  A
C755        C756   1.380       .  A
C756        C757   1.403       .  A
C756        O762   1.318       .  A
C757        C758   1.403       .  A
C757        H766   1.082       .  S
C758        C761   1.363       .  A
O759        C760   1.331       .  A
C760        C761   1.390       .  A
C761        H767   1.082       .  S
O762        C763   1.331       .  A
C763        C764   1.390       .  A
C764        H768   1.082       .  S
C769        C774   1.380       .  A
C769        C770   1.405       .  A
C769        O775   1.319       .  A
C770        C771   1.404       .  A
C770        H781   1.082       .  S
C771        C780   1.364       .  A
C771        C772   1.380       .  A
C772        C773   1.406       .  A
C772        O778   1.320       .  A
C773        C774   1.405       .  A
C773        H782   1.082       .  S
C774        C777   1.366       .  A
O775        C776   1.331       .  A
C776        C777   1.392       .  A
C777        H783   1.082       .  S
O778        C779   1.333       .  A
C779        C780   1.391       .  A
C780        H784   1.083       .  S
C785        C790   1.380       .  A
C785        C786   1.404       .  A
C785        O791   1.322       .  A
C786        C787   1.405       .  A
C786        H797   1.082       .  S
C787        C796   1.360       .  A
C787        C788   1.381       .  A
C788        C789   1.402       .  A
C788        O794   1.320       .  A
C789        C790   1.402       .  A
C789        H798   1.082       .  S
C790        C793   1.359       .  A
O791        C792   1.331       .  A
C792        C793   1.390       .  A
C793        H799   1.083       .  S
O794        C795   1.330       .  A
C795        C796   1.393       .  A
C796        H800   1.083       .  S
C801        C806   1.381       .  A
C801        C802   1.399       .  A
C801        O807   1.316       .  A
C802        C803   1.399       .  A
C802        H813   1.082       .  S
C803        C812   1.356       .  A
C803        C804   1.381       .  A
C804        C805   1.402       .  A
C804        O810   1.318       .  A
C805        C806   1.402       .  A
C805        H814   1.082       .  S
C806        C809   1.360       .  A
O807        C808   1.328       .  A
C808        C809   1.390       .  A
C809        H815   1.083       .  S
O810        C811   1.330       .  A
C811        C812   1.388       .  A
C812        H816   1.083       .  S
C817        C822   1.380       .  A
C817        C818   1.402       .  A
C817        O823   1.315       .  A
C818        C819   1.400       .  A
C818        H829   1.082       .  S
C819        C828   1.362       .  A
C819        C820   1.380       .  A
C820        C821   1.406       .  A
C820        O826   1.320       .  A
C821        C822   1.405       .  A
C821        H830   1.082       .  S
C822        C825   1.367       .  A
O823        C824   1.331       .  A
C824        C825   1.393       .  A
C825        H831   1.082       .  S
O826        C827   1.332       .  A
C827        C828   1.389       .  A
C828        H832   1.082       .  S
C833        C838   1.381       .  A
C833        C834   1.405       .  A
C833        O839   1.321       .  A
C834        C835   1.404       .  A
C834        H845   1.082       .  S
C835        C844   1.363       .  A
C835        C836   1.381       .  A
C836        C837   1.403       .  A
C836        O842   1.320       .  A
C837        C838   1.403       .  A
C837        H846   1.082       .  S
C838        C841   1.360       .  A
O839        C840   1.331       .  A
C840        C841   1.392       .  A
C841        H847   1.082       .  S
O842        C843   1.330       .  A
C843        C844   1.392       .  A
C844        H848   1.082       .  S
C849        C854   1.380       .  A
C849        C850   1.405       .  A
C849        O855   1.319       .  A
C850        C851   1.404       .  A
C850        H861   1.082       .  S
C851        C860   1.365       .  A
C851        C852   1.381       .  A
C852        C853   1.402       .  A
C852        O858   1.317       .  A
C853        C854   1.401       .  A
C853        H862   1.082       .  S
C854        C857   1.362       .  A
O855        C856   1.331       .  A
C856        C857   1.389       .  A
C857        H863   1.082       .  S
O858        C859   1.329       .  A
C859        C860   1.392       .  A
C860        H864   1.082       .  S
C865        C870   1.381       .  A
C865        C866   1.405       .  A
C865        O871   1.323       .  A
C866        C867   1.405       .  A
C866        H877   1.082       .  S
C867        C876   1.362       .  A
C867        C868   1.381       .  A
C868        C869   1.402       .  A
C868        O874   1.320       .  A
C869        C870   1.403       .  A
C869        H878   1.082       .  S
C870        C873   1.357       .  A
O871        C872   1.332       .  A
C872        C873   1.392       .  A
C873        H879   1.083       .  S
O874        C875   1.330       .  A
C875        C876   1.392       .  A
C876        H880   1.082       .  S
C881        C886   1.380       .  A
C881        C882   1.401       .  A
C881        O887   1.314       .  A
C882        C883   1.398       .  A
C882        H893   1.082       .  S
C883        C892   1.360       .  A
C883        C884   1.379       .  A
C884        C885   1.411       .  A
C884        O890   1.324       .  A
C885        C886   1.410       .  A
C885        H894   1.082       .  S
C886        C889   1.372       .  A
O887        C888   1.330       .  A
C888        C889   1.396       .  A
C889        H895   1.082       .  S
O890        C891   1.335       .  A
C891        C892   1.388       .  A
C892        H896   1.083       .  S
C897        C902   1.381       .  A
C897        C898   1.403       .  A
C897        O903   1.318       .  A
C898        C899   1.402       .  A
C898        H909   1.082       .  S
C899        C908   1.363       .  A
C899        C900   1.381       .  A
C900        C901   1.401       .  A
C900        O906   1.317       .  A
C901        C902   1.400       .  A
C901        H910   1.083       .  S
C902        C905   1.360       .  A
O903        C904   1.330       .  A
C904        C905   1.389       .  A
C905        H911   1.083       .  S
O906        C907   1.329       .  A
C907        C908   1.391       .  A
C908        H912   1.083       .  S
C913        C918   1.380       .  A
C913        C914   1.408       .  A
C913        O919   1.322       .  A
C914        C915   1.407       .  A
C914        H925   1.082       .  S
C915        C924   1.367       .  A
C915        C916   1.381       .  A
C916        C917   1.400       .  A
C916        O922   1.316       .  A
C917        C918   1.399       .  A
C917        H926   1.082       .  S
C918        C921   1.358       .  A
O919        C920   1.333       .  A
C920        C921   1.388       .  A
C921        H927   1.083       .  S
O922        C923   1.328       .  A
C923        C924   1.393       .  A
C924        H928   1.082       .  S
C929        C934   1.381       .  A
C929        C930   1.405       .  A
C929        O935   1.321       .  A
C930        C931   1.405       .  A
C930        H941   1.082       .  S
C931        C940   1.363       .  A
C931        C932   1.381       .  A
C932        C933   1.400       .  A
C932        O938   1.317       .  A
C933        C934   1.400       .  A
C933        H942   1.082       .  S
C934        C937   1.357       .  A
O935        C936   1.332       .  A
C936        C937   1.389       .  A
C937        H943   1.083       .  S
O938        C939   1.329       .  A
C939        C940   1.391       .  A
C940        H944   1.082       .  S
C945        C950   1.381   1_545  A
C945        C946   1.402       .  A
C945        O951   1.317       .  A
C946        C947   1.401       .  A
C946        H957   1.083       .  S
C947        C956   1.360       .  A
C947        C948   1.382       .  A
C948        C949   1.401   1_545  A
C948        O954   1.317       .  A
C949        C950   1.400       .  A
C949        H958   1.083       .  S
C950        C953   1.359       .  A
O951        C952   1.329   1_545  A
C952        C953   1.388       .  A
C953        H959   1.083       .  S
O954        C955   1.328       .  A
C955        C956   1.390       .  A
C956        H960   1.083       .  S
C961        C966   1.381       .  A
C961        C962   1.401       .  A
C961        O967   1.315       .  A
C962        C963   1.400       .  A
C962        H973   1.083       .  S
C963        C972   1.360       .  A
C963        C964   1.381       .  A
C964        C965   1.404       .  A
C964        O970   1.319       .  A
C965        C966   1.403       .  A
C965        H974   1.082       .  S
C966        C969   1.364       .  A
O967        C968   1.329       .  A
C968        C969   1.390       .  A
C969        H975   1.082       .  S
O970        C971   1.330       .  A
C971        C972   1.389       .  A
C972        H976   1.083       .  S
C977        C982   1.381       .  A
C977        C978   1.402       .  A
C977        O983   1.318       .  A
C978        C979   1.401       .  A
C978        H989   1.083       .  S
C979        C988   1.360       .  A
C979        C980   1.382   1_545  A
C980        C981   1.401       .  A
C980        O986   1.316       .  A
C981        C982   1.400   1_565  A
C981        H990   1.083       .  S
C982        C985   1.359       .  A
O983        C984   1.330       .  A
C984        C985   1.389       .  A
C985        H991   1.083       .  S
O986        C987   1.328       .  A
C987        C988   1.389   1_565  A
C988        H992   1.083       .  S
C993        C998   1.380       .  A
C993        C994   1.403       .  A
C993        O999   1.317       .  A
C994        C995   1.402       .  A
C994       H1005   1.082       .  S
C995       C1004   1.363       .  A
C995        C996   1.380       .  A
C996        C997   1.406       .  A
C996       O1002   1.320       .  A
C997        C998   1.405       .  A
C997       H1006   1.082       .  S
C998       C1001   1.366       .  A
O999       C1000   1.331       .  A
C1000      C1001   1.393       .  A
C1001      H1007   1.082       .  S
O1002      C1003   1.332       .  A
C1003      C1004   1.390       .  A
C1004      H1008   1.082       .  S
C1009      C1014   1.380       .  A
C1009      C1010   1.403       .  A
C1009      O1015   1.321       .  A
C1010      C1011   1.404       .  A
C1010      H1021   1.082       .  S
C1011      C1020   1.359       .  A
C1011      C1012   1.380       .  A
C1012      C1013   1.406       .  A
C1012      O1018   1.322       .  A
C1013      C1014   1.405       .  A
C1013      H1022   1.082       .  S
C1014      C1017   1.363       .  A
O1015      C1016   1.330       .  A
C1016      C1017   1.392       .  A
C1017      H1023   1.082       .  S
O1018      C1019   1.333       .  A
C1019      C1020   1.393       .  A
C1020      H1024   1.083       .  S
C1025      C1030   1.381       .  A
C1025      C1026   1.400       .  A
C1025      O1031   1.315       .  A
C1026      C1027   1.399       .  A
C1026      H1037   1.082       .  S
C1027      C1036   1.359       .  A
C1027      C1028   1.381       .  A
C1028      C1029   1.404       .  A
C1028      O1034   1.319       .  A
C1029      C1030   1.403       .  A
C1029      H1038   1.082       .  S
C1030      C1033   1.363       .  A
O1031      C1032   1.329       .  A
C1032      C1033   1.391       .  A
C1033      H1039   1.082       .  S
O1034      C1035   1.330       .  A
C1035      C1036   1.388       .  A
C1036      H1040   1.082       .  S
C1041      C1046   1.380       .  A
C1041      C1042   1.402       .  A
C1041      O1047   1.321       .  A
C1042      C1043   1.403       .  A
C1042      H1053   1.082       .  S
C1043      C1052   1.357       .  A
C1043      C1044   1.380       .  A
C1044      C1045   1.407       .  A
C1044      O1050   1.325       .  A
C1045      C1046   1.407       .  A
C1045      H1054   1.082       .  S
C1046      C1049   1.364       .  A
O1047      C1048   1.330       .  A
C1048      C1049   1.392       .  A
C1049      H1055   1.082       .  S
O1050      C1051   1.333       .  A
C1051      C1052   1.394       .  A
C1052      H1056   1.083       .  S
C1057      C1062   1.379       .  A
C1057      C1058   1.404       .  A
C1057      O1063   1.317       .  A
C1058      C1059   1.402       .  A
C1058      H1069   1.082       .  S
C1059      C1068   1.362       .  A
C1059      C1060   1.381       .  A
C1060      C1061   1.405       .  A
C1060      O1066   1.319       .  A
C1061      C1062   1.403       .  A
C1061      H1070   1.082       .  S
C1062      C1065   1.364       .  A
O1063      C1064   1.333       .  A
C1064      C1065   1.394       .  A
C1065      H1071   1.082       .  S
O1066      C1067   1.331       .  A
C1067      C1068   1.390       .  A
C1068      H1072   1.082       .  S
C1073      C1078   1.380       .  A
C1073      C1074   1.405       .  A
C1073      O1079   1.319       .  A
C1074      C1075   1.404       .  A
C1074      H1085   1.082       .  S
C1075      C1084   1.366       .  A
C1075      C1076   1.380       .  A
C1076      C1077   1.403       .  A
C1076      O1082   1.316       .  A
C1077      C1078   1.400       .  A
C1077      H1086   1.082       .  S
C1078      C1081   1.362       .  A
O1079      C1080   1.331       .  A
C1080      C1081   1.389       .  A
C1081      H1087   1.082       .  S
O1082      C1083   1.331       .  A
C1083      C1084   1.392       .  A
C1084      H1088   1.082       .  S
C1089      C1094   1.381       .  A
C1089      C1090   1.400       .  A
C1089      O1095   1.315       .  A
C1090      C1091   1.399       .  A
C1090      H1101   1.082       .  S
C1091      C1100   1.360       .  A
C1091      C1092   1.381       .  A
C1092      C1093   1.404       .  A
C1092      O1098   1.318       .  A
C1093      C1094   1.402       .  A
C1093      H1102   1.082       .  S
C1094      C1097   1.364       .  A
O1095      C1096   1.328       .  A
C1096      C1097   1.391       .  A
C1097      H1103   1.083       .  S
O1098      C1099   1.330       .  A
C1099      C1100   1.389       .  A
C1100      H1104   1.083       .  S
C1105      C1110   1.381       .  A
C1105      C1106   1.401       .  A
C1105      O1111   1.318       .  A
C1106      C1107   1.401       .  A
C1106      H1117   1.082       .  S
C1107      C1116   1.359       .  A
C1107      C1108   1.381       .  A
C1108      C1109   1.403       .  A
C1108      O1114   1.319       .  A
C1109      C1110   1.402       .  A
C1109      H1118   1.082       .  S
C1110      C1113   1.360       .  A
O1111      C1112   1.329       .  A
C1112      C1113   1.390       .  A
C1113      H1119   1.083       .  S
O1114      C1115   1.330       .  A
C1115      C1116   1.389       .  A
C1116      H1120   1.082       .  S
C1121      C1126   1.380       .  A
C1121      C1122   1.402       .  A
C1121      O1127   1.315       .  A
C1122      C1123   1.400       .  A
C1122      H1133   1.082       .  S
C1123      C1132   1.362       .  A
C1123      C1124   1.380       .  A
C1124      C1125   1.407       .  A
C1124      O1130   1.319       .  A
C1125      C1126   1.405       .  A
C1125      H1134   1.082       .  S
C1126      C1129   1.367       .  A
O1127      C1128   1.330       .  A
C1128      C1129   1.393       .  A
C1129      H1135   1.082       .  S
O1130      C1131   1.332       .  A
C1131      C1132   1.389       .  A
C1132      H1136   1.082       .  S
C1137      C1142   1.380       .  A
C1137      C1138   1.409       .  A
C1137      O1143   1.323       .  A
C1138      C1139   1.408       .  A
C1138      H1149   1.082       .  S
C1139      C1148   1.369       .  A
C1139      C1140   1.380       .  A
C1140      C1141   1.401       .  A
C1140      O1146   1.315       .  A
C1141      C1142   1.399       .  A
C1141      H1150   1.082       .  S
C1142      C1145   1.360       .  A
O1143      C1144   1.334       .  A
C1144      C1145   1.388       .  A
C1145      H1151   1.082       .  S
O1146      C1147   1.329       .  A
C1147      C1148   1.394       .  A
C1148      H1152   1.082       .  S
