geometry optimzed in LAMMPS
_audit_creation_date              2020-11-30 
_audit_creation_method            'lammps2cif' 
_symmetry_space_group_name_H-M    'P1' 
_symmetry_Int_Tables_number       1 
_symmetry_cell_setting            triclinic 
loop_ 
_symmetry_equiv_pos_as_xyz 
  x,y,z 
_cell_length_a                    48.50719723992544 
_cell_length_b                    48.35315671239376 
_cell_length_c                    39.66364786424063 
_cell_angle_alpha                 90.06675141807757 
_cell_angle_beta                  90.00752255542642 
_cell_angle_gamma                 90.13960573074588 
loop_ 
_atom_site_label 
_atom_site_type_symbol 
_atom_site_fract_x 
_atom_site_fract_y 
_atom_site_fract_z 
_atom_site_charge 
N1          N  0.41577550  0.09825385  0.08027854    -0.27310
N2          N  0.40759745  0.07530798  0.09539502    -0.35170
C3          C  0.42304022  0.05406419  0.08422740     0.01030
C4          C  0.44148196  0.06423196  0.06066409     0.07060
C5          C  0.43625839  0.09224785  0.05874419    -0.06040
H6          H  0.42081103  0.03283509  0.09239299     0.07730
H7          H  0.44695113  0.10729887  0.04334467     0.08930
Cu8        Cu  0.37543225  0.07449656  0.12988553     0.44170
Cu9        Cu  0.40024704  0.13703113  0.09107447     0.41990
Cu10       Cu  0.34993523  0.14163128  0.15795567     0.43880
N11         N  0.34324240  0.07973964  0.16376677    -0.34690
N12         N  0.33484351  0.10402959  0.17517038    -0.28950
C13         C  0.31438864  0.10002382  0.19757128    -0.05050
C14         C  0.30942754  0.07193597  0.19987511     0.07170
C15         C  0.32796270  0.05969682  0.17806299     0.00960
H16         H  0.30345351  0.11638524  0.21048500     0.08620
H17         H  0.33037796  0.03781607  0.17318339     0.07690
N18         N  0.36646916  0.17581666  0.13363218    -0.36140
N19         N  0.38478461  0.17401090  0.10904803    -0.28320
C20         C  0.39138639  0.19958292  0.09849960    -0.03560
C21         C  0.37665853  0.21835829  0.11753122     0.05050
C22         C  0.36080200  0.20264719  0.13926276     0.03140
H23         H  0.40555481  0.20409539  0.07816664     0.08250
H24         H  0.34625864  0.21015822  0.15779275     0.07080
O25         O  0.47100667  0.02552861  0.05181671    -0.72960
O26         O  0.03049542  0.98637199  0.99959641    -0.73940
O27         O  0.02999909  0.02557504  0.05340505    -0.62560
O28         O  0.47228610  0.98626413  0.99803058    -0.70970
O29         O  0.47274277  0.02107211  0.46153089    -0.70530
O30         O  0.03016180  0.06001923  0.01639632    -0.61780
O31         O  0.03150285  0.02117204  0.46309040    -0.74290
O32         O  0.47236801  0.06002688  0.01491508    -0.73070
Cu33       Cu  0.00091703  0.00471128  0.02708580     1.04560
Cu34       Cu  0.00171039  0.04169726  0.48765813     1.04330
C35         C  0.46251441  0.04908904  0.04159242     0.93240
C36         C  0.04032433  0.99771451  0.47311390     0.92370
C37         C  0.03904034  0.04907987  0.04355350     0.84520
C38         C  0.46347798  0.99758585  0.47103060     0.90790
N39         N  0.16395634  0.10404019  0.18150984    -0.27310
N40         N  0.15559241  0.07979297  0.16977809    -0.35170
C41         C  0.17122612  0.05973594  0.18326582     0.01030
C42         C  0.19002860  0.07185212  0.20487872     0.07060
C43         C  0.18483023  0.09993460  0.20331103    -0.06040
H44         H  0.16908617  0.03793304  0.17765011     0.07730
H45         H  0.19604452  0.11624604  0.21606480     0.08930
Cu46       Cu  0.12365380  0.07439665  0.13562785     0.44170
Cu47       Cu  0.14868651  0.14177918  0.16475438     0.41990
Cu48       Cu  0.10302817  0.13611045  0.09294991     0.43880
N49         N  0.09273577  0.07502140  0.09955230    -0.34690
N50         N  0.08611360  0.09773931  0.08297178    -0.28950
C51         C  0.06615945  0.09183408  0.06063704    -0.05050
C52         C  0.05970782  0.06410140  0.06346878     0.07170
C53         C  0.07685461  0.05400261  0.08845546     0.00960
H54         H  0.05674093  0.10676037  0.04393688     0.08620
H55         H  0.07797515  0.03295395  0.09756751     0.07690
N56         N  0.11724192  0.17332101  0.11180716    -0.36140
N57         N  0.13310530  0.17566136  0.13874638    -0.28320
C58         C  0.13754198  0.20267817  0.14489888    -0.03560
C59         C  0.12353257  0.21804236  0.12089368     0.05050
C60         C  0.11130602  0.19864005  0.10000561     0.03140
H61         H  0.15009857  0.21059850  0.16530574     0.08250
H62         H  0.09959684  0.20234115  0.07733359     0.07080
N63         N  0.33935515  0.95837961  0.32707604    -0.27310
N64         N  0.34612068  0.98097549  0.34394884    -0.35170
C65         C  0.32979675  0.00189588  0.33389833     0.01030
C66         C  0.31216771  0.99187166  0.30931340     0.07060
C67         C  0.31881714  0.96427928  0.30559990    -0.06040
H68         H  0.33078648  0.02278321  0.34364360     0.07730
H69         H  0.30903488  0.94940057  0.28904555     0.08930
Cu70       Cu  0.37731740  0.98152995  0.37959348     0.44170
Cu71       Cu  0.35652885  0.92003687  0.33602826     0.41990
Cu72       Cu  0.40030071  0.91409853  0.40962606     0.43880
N73         N  0.40869729  0.97592597  0.41433274    -0.34690
N74         N  0.41627362  0.95163733  0.42652050    -0.28950
C75         C  0.43668521  0.95558242  0.44905736    -0.05050
C76         C  0.44239025  0.98360381  0.45063795     0.07170
C77         C  0.42437592  0.99584452  0.42825458     0.00960
H78         H  0.44712463  0.93921140  0.46251261     0.08620
H79         H  0.42263939  0.01766212  0.42263019     0.07690
N80         N  0.38501858  0.88034952  0.38280433    -0.36140
N81         N  0.37031540  0.88277018  0.35494864    -0.28320
C82         C  0.36488914  0.85748905  0.34250307    -0.03560
C83         C  0.37609432  0.83790178  0.36396843     0.05050
C84         C  0.38900058  0.85332237  0.38903430     0.03140
H85         H  0.35414078  0.85407016  0.31910354     0.08250
H86         H  0.40060714  0.84543262  0.41022724     0.07080
O87         O  0.22185103  0.06920942  0.25032110    -0.72960
O88         O  0.28202121  0.03020699  0.30144133    -0.73940
O89         O  0.28003253  0.06931859  0.24768340    -0.62560
O90         O  0.22309049  0.02999165  0.30413503    -0.70970
O91         O  0.22278106  0.99539630  0.26724075    -0.70530
O92         O  0.27921268  0.03448068  0.21112739    -0.61780
O93         O  0.28049779  0.99575560  0.26438168    -0.74290
O94         O  0.22048790  0.03430614  0.21388715    -0.73070
Cu95       Cu  0.25177654  0.05091289  0.27727055     1.04560
Cu96       Cu  0.25068092  0.01386285  0.23783675     1.04330
C97         C  0.21178513  0.05781919  0.22397052     0.93240
C98         C  0.29061387  0.00675902  0.29089873     0.92370
C99         C  0.28857032  0.05796107  0.22053741     0.84520
C100        C  0.21423513  0.00630533  0.29460541     0.90790
N101        N  0.16942837  0.95679200  0.33628948    -0.27310
N102        N  0.16138925  0.97980300  0.35134800    -0.35170
C103        C  0.17634254  0.00114198  0.33933021     0.01030
C104        C  0.19429063  0.99097528  0.31523504     0.07060
C105        C  0.18932705  0.96285136  0.31394268    -0.06040
H106        H  0.17388587  0.02247299  0.34700302     0.07730
H107        H  0.19958738  0.94782120  0.29811058     0.08930
Cu108      Cu  0.12943345  0.98070040  0.38608480     0.44170
Cu109      Cu  0.15368520  0.91802203  0.34722905     0.41990
Cu110      Cu  0.10291876  0.91371665  0.41364726     0.43880
N111        N  0.09674167  0.97566057  0.41926321    -0.34690
N112        N  0.08792560  0.95143902  0.43047492    -0.28950
C113        C  0.06686876  0.95558221  0.45196596    -0.05050
C114        C  0.06197997  0.98368324  0.45387076     0.07170
C115        C  0.08117428  0.99579032  0.43278272     0.00960
H116        H  0.05537762  0.93929230  0.46433855     0.08620
H117        H  0.08370026  0.01762548  0.42767158     0.07690
N118        N  0.11845219  0.87947688  0.38851359    -0.36140
N119        N  0.13668654  0.88119059  0.36381438    -0.28320
C120        C  0.14221816  0.85563580  0.35232390    -0.03560
C121        C  0.12655452  0.83703398  0.37050678     0.05050
C122        C  0.11192100  0.85272646  0.39344868     0.03140
H123        H  0.15678570  0.85094548  0.33248288     0.08250
H124        H  0.09756659  0.84527448  0.41225254     0.07080
N125        N  0.41667393  0.59746072  0.39445572    -0.27310
N126        N  0.40995913  0.57473096  0.37782386    -0.35170
C127        C  0.42577765  0.55373112  0.38880773     0.01030
C128        C  0.44299703  0.56384392  0.41377687     0.07060
C129        C  0.43665489  0.59157442  0.41671402    -0.06040
H130        H  0.42460124  0.53269523  0.37958232     0.07730
H131        H  0.44619335  0.60651634  0.43339509     0.08930
Cu132      Cu  0.37910619  0.57404836  0.34172775     0.44170
Cu133      Cu  0.39988789  0.63582797  0.38450973     0.41990
Cu134      Cu  0.35593707  0.64135460  0.31108566     0.43880
N135        N  0.34733505  0.57949261  0.30747857    -0.34690
N136        N  0.33963225  0.60369833  0.29515944    -0.28950
C137        C  0.31868119  0.59965307  0.27341301    -0.05050
C138        C  0.31276333  0.57166267  0.27248891     0.07170
C139        C  0.33121808  0.55953429  0.29441753     0.00960
H140        H  0.30796894  0.61595978  0.26016367     0.08620
H141        H  0.33285510  0.53778347  0.30045485     0.07690
N142        N  0.37142719  0.67527218  0.33735932    -0.36140
N143        N  0.38620332  0.67300423  0.36517449    -0.28320
C144        C  0.39167977  0.69835357  0.37736729    -0.03560
C145        C  0.38044409  0.71782489  0.35576642     0.05050
C146        C  0.36745496  0.70226542  0.33089147     0.03140
H147        H  0.40245351  0.70189852  0.40071971     0.08250
H148        H  0.35577269  0.71003441  0.30969401     0.07080
N149        N  0.41544848  0.45142243  0.04699859    -0.27310
N150        N  0.40696045  0.47565163  0.05849724    -0.35170
C151        C  0.42259583  0.49574045  0.04489013     0.01030
C152        C  0.44147572  0.48359641  0.02344856     0.07060
C153        C  0.43633618  0.45551882  0.02523539    -0.06280
H154        H  0.42029614  0.51757788  0.05013216     0.07730
H155        H  0.44750845  0.43920895  0.01253067     0.08930
Cu156      Cu  0.37450268  0.48076310  0.09202348     0.44170
Cu157      Cu  0.40011078  0.41373025  0.06351702     0.41990
Cu158      Cu  0.34969987  0.41805677  0.13029747     0.43880
N159        N  0.34259804  0.47985373  0.12687349    -0.34690
N160        N  0.33445822  0.45682532  0.14183263    -0.28950
C161        C  0.31442294  0.46280278  0.16400593    -0.05050
C162        C  0.30944612  0.49089121  0.16267428     0.07170
C163        C  0.32756274  0.50112726  0.13877715     0.00960
H164        H  0.30394450  0.44771150  0.17956494     0.08620
H165        H  0.32996581  0.52244298  0.13102830     0.07690
N166        N  0.36507489  0.38113910  0.11197124    -0.36140
N167        N  0.38343300  0.37943790  0.08742426    -0.28320
C168        C  0.38910072  0.35263283  0.08161566    -0.03560
C169        C  0.37319836  0.33682540  0.10319130     0.05050
C170        C  0.35844685  0.35551900  0.12231927     0.03140
H171        H  0.40370482  0.34520694  0.06310578     0.08250
H172        H  0.34427652  0.35091727  0.14262027     0.07080
N173        N  0.16776751  0.60406478  0.30034373    -0.27310
N174        N  0.15908335  0.57980769  0.31158974    -0.35170
C175        C  0.17430445  0.55969813  0.29744425     0.01030
C176        C  0.19311855  0.57185294  0.27588897     0.07060
C177        C  0.18837771  0.59996662  0.27819228    -0.06040
H178        H  0.17169008  0.53783266  0.30229306     0.07730
H179        H  0.19959740  0.61628046  0.26550084     0.08930
Cu180      Cu  0.12669216  0.57470183  0.34517758     0.44170
Cu181      Cu  0.15295351  0.64172475  0.31770305     0.41990
Cu182      Cu  0.10230822  0.63725155  0.38431040     0.43880
N183        N  0.09447714  0.57553281  0.37953839    -0.34690
N184        N  0.08635411  0.59847928  0.39467515    -0.28950
C185        C  0.06600041  0.59239833  0.41638833    -0.05050
C186        C  0.06083459  0.56433180  0.41458286     0.07170
C187        C  0.07914033  0.55421931  0.39086838     0.00960
H188        H  0.05547544  0.60739928  0.43199957     0.08620
H189        H  0.08145125  0.53296014  0.38283692     0.07690
N190        N  0.11932000  0.67410524  0.36787345    -0.36140
N191        N  0.13749153  0.67588986  0.34311075    -0.28320
C192        C  0.14397160  0.70266160  0.33824054    -0.03560
C193        C  0.12937462  0.71828789  0.36128895     0.05050
C194        C  0.11378157  0.69962681  0.37946758     0.03140
H195        H  0.15824876  0.71017674  0.31938646     0.08250
H196        H  0.09923166  0.70425611  0.39934964     0.07080
O197        O  0.47289257  0.55981831  0.46049675    -0.72960
O198        O  0.03081792  0.52105586  0.01437275    -0.73940
O199        O  0.03064523  0.55997213  0.46098838    -0.62560
O200        O  0.47204974  0.52105266  0.01379884    -0.70970
O201        O  0.47249835  0.48622055  0.47722766    -0.70530
O202        O  0.03154908  0.52541234  0.42405971    -0.61780
O203        O  0.03071367  0.48617822  0.47787080    -0.74290
O204        O  0.47259585  0.52534369  0.42343049    -0.73070
Cu205      Cu  0.00160971  0.54159564  0.48874264     1.04560
Cu206      Cu  0.00185725  0.50455725  0.44927476     1.04330
C207        C  0.46373920  0.54884954  0.43343736     0.93240
C208        C  0.03984307  0.49753565  0.00474843     0.92370
C209        C  0.04013566  0.54905328  0.43410486     0.84520
C210        C  0.46300907  0.49758754  0.00388508     0.90790
O211        O  0.22321218  0.53431847  0.26510518    -0.72960
O212        O  0.28022785  0.49520394  0.21003675    -0.73940
O213        O  0.28197990  0.53423270  0.26334724    -0.62560
O214        O  0.22243503  0.49542618  0.21183726    -0.70970
O215        O  0.22140454  0.52983438  0.17480035    -0.70530
O216        O  0.28118253  0.56900270  0.22680389    -0.61780
O217        O  0.28038469  0.52969758  0.17309735    -0.74290
O218        O  0.22297986  0.56908765  0.22854269    -0.73070
Cu219      Cu  0.25199695  0.51367096  0.23891149     1.04560
Cu220      Cu  0.25146767  0.55062653  0.19943841     1.04330
C221        C  0.21409026  0.55779226  0.25554875     0.93240
C222        C  0.28914925  0.50610165  0.18284805     0.92370
C223        C  0.29094829  0.55768094  0.25329858     0.84520
C224        C  0.21263567  0.50637886  0.18516841     0.90790
N225        N  0.08654655  0.45136421  0.04918623    -0.27310
N226        N  0.09469178  0.47564329  0.06103915    -0.35170
C227        C  0.07932936  0.49566839  0.04701932     0.01030
C228        C  0.06094882  0.48349532  0.02491306     0.07060
C229        C  0.06610304  0.45541220  0.02676351    -0.06040
H230        H  0.08148233  0.51750196  0.05244678     0.07730
H231        H  0.05522502  0.43907427  0.01363159     0.08930
Cu232      Cu  0.12631997  0.48108686  0.09559065     0.44170
Cu233      Cu  0.10176532  0.41370718  0.06632288     0.41990
Cu234      Cu  0.14728323  0.41944722  0.13834607     0.43880
N235        N  0.15750760  0.48050450  0.13129881    -0.34690
N236        N  0.16428985  0.45784448  0.14790216    -0.28950
C237        C  0.18468468  0.46375975  0.16963329    -0.05050
C238        C  0.19124984  0.49143199  0.16635621     0.07170
C239        C  0.17370850  0.50148580  0.14176674     0.00960
H240        H  0.19442307  0.44884578  0.18607297     0.08620
H241        H  0.17266589  0.52244532  0.13234076     0.07690
N242        N  0.13311885  0.38222801  0.11946646    -0.36140
N243        N  0.11731822  0.37987060  0.09247128    -0.28320
C244        C  0.11293014  0.35284920  0.08630350    -0.03560
C245        C  0.12690634  0.33750117  0.11035011     0.05050
C246        C  0.13906610  0.35691367  0.13128026     0.03140
H247        H  0.10043090  0.34491376  0.06585290     0.08250
H248        H  0.15074187  0.35321882  0.15398148     0.07080
C249        C  0.14125554  0.79164436  0.39208680    -0.05800
C250        C  0.12685268  0.80668232  0.36760504     0.00130
C251        C  0.11315402  0.79269477  0.34108791    -0.08440
C252        C  0.11458997  0.76367436  0.33977737    -0.05820
C253        C  0.12900822  0.74863637  0.36424702     0.00120
C254        C  0.14268357  0.76262335  0.39078362    -0.08350
C255        C  0.15914795  0.74692399  0.41704459     0.62030
H256        H  0.15155231  0.80289851  0.41210769     0.12720
H257        H  0.10429721  0.75242155  0.31975228     0.12730
C258        C  0.09666577  0.80839500  0.31484977     0.62260
F259        F  0.17214335  0.76456688  0.43954933    -0.22910
F260        F  0.17914694  0.73118194  0.40129310    -0.20240
F261        F  0.14185665  0.72971537  0.43516496    -0.19910
F262        F  0.11393772  0.82561278  0.29671491    -0.19960
F263        F  0.07667482  0.82412857  0.33062986    -0.20290
F264        F  0.08365693  0.79075296  0.29235567    -0.22960
C265        C  0.35568621  0.76213541  0.34990196    -0.05800
C266        C  0.38014244  0.74855134  0.35895105     0.00130
C267        C  0.40335885  0.76462650  0.36887051    -0.08440
C268        C  0.40088554  0.79361034  0.36956723    -0.05820
C269        C  0.37642174  0.80719322  0.36056611     0.00120
C270        C  0.35321610  0.79112519  0.35059120    -0.08350
C271        C  0.32571750  0.80383545  0.34089062     0.62030
H272        H  0.33821112  0.74968162  0.34218571     0.12720
H273        H  0.41835764  0.80606222  0.37730145     0.12730
C274        C  0.43087032  0.75193788  0.37855507     0.62260
F275        F  0.30476377  0.78433407  0.34058929    -0.22910
F276        F  0.32751019  0.81484889  0.30884363    -0.20240
F277        F  0.31832797  0.82417854  0.36366994    -0.19910
F278        F  0.43819126  0.73148038  0.35589529    -0.19960
F279        F  0.42915120  0.74108743  0.41069080    -0.20290
F280        F  0.45183723  0.77142580  0.37863060    -0.22960
C281        C  0.10138382  0.29334384  0.11141613    -0.05800
C282        C  0.12687466  0.30695633  0.11378191     0.00130
C283        C  0.15128747  0.29116650  0.11780748    -0.08440
C284        C  0.14906284  0.26220417  0.11983299    -0.05820
C285        C  0.12357009  0.24859014  0.11746832     0.00120
C286        C  0.09915812  0.26438277  0.11343261    -0.08350
C287        C  0.07073397  0.25118193  0.11195316     0.62030
H288        H  0.08302081  0.30573411  0.10802317     0.12720
H289        H  0.16742752  0.24981548  0.12321963     0.12730
C290        C  0.17970834  0.30437727  0.11924298     0.62260
F291        F  0.05004334  0.27058789  0.11594734    -0.22910
F292        F  0.06781584  0.23183474  0.13737266    -0.20240
F293        F  0.06697782  0.23861639  0.08100519    -0.19910
F294        F  0.18347067  0.31699917  0.15015568    -0.19960
F295        F  0.18260865  0.32368434  0.09377479    -0.20290
F296        F  0.20040365  0.28497118  0.11528523    -0.22960
C297        C  0.39759638  0.29405365  0.11868728    -0.05800
C298        C  0.37346852  0.30648772  0.10664308     0.00130
C299        C  0.35046406  0.28993552  0.09782342    -0.08440
C300        C  0.35231437  0.26111854  0.10188580    -0.05820
C301        C  0.37643307  0.24868604  0.11395593     0.00120
C302        C  0.39944574  0.26523603  0.12275428    -0.08350
C303        C  0.42548636  0.25256373  0.13718833     0.62030
H304        H  0.41492530  0.30720252  0.12515046     0.12720
H305        H  0.33498162  0.24797086  0.09543415     0.12730
C306        C  0.32442265  0.30260779  0.08339405     0.62260
F307        F  0.44430404  0.27256350  0.14706676    -0.22910
F308        F  0.43794102  0.23605303  0.11319434    -0.20240
F309        F  0.41900951  0.23671888  0.16512099    -0.19910
F310        F  0.33090271  0.31848967  0.05549361    -0.19960
F311        F  0.31194619  0.31908165  0.10740814    -0.20290
F312        F  0.30562322  0.28260695  0.07346794    -0.22960
N313        N  0.41577550  0.09825386  0.58027857    -0.27310
N314        N  0.40759745  0.07530798  0.59539505    -0.35170
C315        C  0.42304022  0.05406419  0.58422743     0.01030
C316        C  0.44148195  0.06423196  0.56066412     0.07060
C317        C  0.43625838  0.09224786  0.55874421    -0.06040
H318        H  0.42081102  0.03283510  0.59239302     0.07730
H319        H  0.44695113  0.10729888  0.54334469     0.08930
Cu320      Cu  0.37543225  0.07449656  0.62988555     0.44170
Cu321      Cu  0.40024704  0.13703114  0.59107450     0.41990
Cu322      Cu  0.34993522  0.14163129  0.65795569     0.43880
N323        N  0.34324240  0.07973965  0.66376679    -0.34690
N324        N  0.33484350  0.10402959  0.67517040    -0.28950
C325        C  0.31438863  0.10002382  0.69757130    -0.05050
C326        C  0.30942753  0.07193597  0.69987513     0.07170
C327        C  0.32796270  0.05969683  0.67806302     0.00960
H328        H  0.30345349  0.11638525  0.71048501     0.08620
H329        H  0.33037797  0.03781607  0.67318342     0.07690
N330        N  0.36646915  0.17581667  0.63363219    -0.36140
N331        N  0.38478460  0.17401091  0.60904805    -0.28320
C332        C  0.39138637  0.19958293  0.59849961    -0.03560
C333        C  0.37665851  0.21835829  0.61753123     0.05050
C334        C  0.36080198  0.20264719  0.63926277     0.03140
H335        H  0.40555480  0.20409539  0.57816666     0.08250
H336        H  0.34625861  0.21015823  0.65779275     0.07080
O337        O  0.47100666  0.02552862  0.55181672    -0.72960
O338        O  0.03049542  0.98637200  0.49959640    -0.73940
O339        O  0.02999908  0.02557504  0.55340505    -0.62560
O340        O  0.47228609  0.98626414  0.49803058    -0.70970
O341        O  0.47274279  0.02107210  0.96153088    -0.70530
O342        O  0.03016179  0.06001923  0.51639633    -0.61780
O343        O  0.03150284  0.02117203  0.96309040    -0.74290
O344        O  0.47236800  0.06002689  0.51491509    -0.73070
Cu345      Cu  0.00091702  0.00471128  0.52708579     1.04560
Cu346      Cu  0.00171039  0.04169726  0.98765814     1.04330
C347        C  0.46251440  0.04908905  0.54159244     0.93240
C348        C  0.04032433  0.99771450  0.97311390     0.92370
C349        C  0.03904033  0.04907987  0.54355352     0.84520
C350        C  0.46347799  0.99758584  0.97103060     0.90790
N351        N  0.16395635  0.10404019  0.68150983    -0.27310
N352        N  0.15559241  0.07979297  0.66977809    -0.35170
C353        C  0.17122612  0.05973594  0.68326582     0.01030
C354        C  0.19002860  0.07185212  0.70487871     0.07060
C355        C  0.18483024  0.09993460  0.70331102    -0.06040
H356        H  0.16908616  0.03793304  0.67765012     0.07730
H357        H  0.19604452  0.11624604  0.71606479     0.08930
Cu358      Cu  0.12365379  0.07439665  0.63562786     0.44170
Cu359      Cu  0.14868652  0.14177918  0.66475437     0.41990
Cu360      Cu  0.10302814  0.13611046  0.59294994     0.43880
N361        N  0.09273575  0.07502140  0.59955232    -0.34690
N362        N  0.08611357  0.09773931  0.58297181    -0.28950
C363        C  0.06615942  0.09183408  0.56063707    -0.05050
C364        C  0.05970780  0.06410140  0.56346880     0.07170
C365        C  0.07685459  0.05400261  0.58845547     0.00960
H366        H  0.05674089  0.10676038  0.54393692     0.08620
H367        H  0.07797515  0.03295395  0.59756751     0.07690
N368        N  0.11724190  0.17332101  0.61180718    -0.36140
N369        N  0.13310530  0.17566137  0.63874638    -0.28320
C370        C  0.13754199  0.20267817  0.64489887    -0.03560
C371        C  0.12353257  0.21804237  0.62089369     0.05050
C372        C  0.11130600  0.19864006  0.60000563     0.03140
H373        H  0.15009858  0.21059851  0.66530572     0.08250
H374        H  0.09959680  0.20234115  0.57733362     0.07080
N375        N  0.33935513  0.95837961  0.82707608    -0.27310
N376        N  0.34612066  0.98097549  0.84394888    -0.35170
C377        C  0.32979673  0.00189588  0.83389836     0.01030
C378        C  0.31216770  0.99187166  0.80931344     0.07060
C379        C  0.31881712  0.96427928  0.80559994    -0.06040
H380        H  0.33078647  0.02278321  0.84364363     0.07730
H381        H  0.30903486  0.94940057  0.78904558     0.08930
Cu382      Cu  0.37731739  0.98152994  0.87959352     0.44170
Cu383      Cu  0.35652883  0.92003687  0.83602830     0.41990
Cu384      Cu  0.40030070  0.91409853  0.90962609     0.43880
N385        N  0.40869729  0.97592597  0.91433276    -0.34690
N386        N  0.41627362  0.95163733  0.92652052    -0.28950
C387        C  0.43668521  0.95558242  0.94905737    -0.05050
C388        C  0.44239026  0.98360380  0.95063795     0.07170
C389        C  0.42437593  0.99584451  0.92825459     0.00960
H390        H  0.44712464  0.93921139  0.96251262     0.08620
H391        H  0.42263940  0.01766211  0.92263020     0.07690
N392        N  0.38501857  0.88034951  0.88280436    -0.36140
N393        N  0.37031538  0.88277018  0.85494867    -0.28320
C394        C  0.36488913  0.85748905  0.84250309    -0.03560
C395        C  0.37609431  0.83790177  0.86396845     0.05050
C396        C  0.38900057  0.85332236  0.88903432     0.03140
H397        H  0.35414077  0.85407016  0.81910356     0.08250
H398        H  0.40060714  0.84543261  0.91022725     0.07080
O399        O  0.22185102  0.06920942  0.75032111    -0.72960
O400        O  0.28202120  0.03020699  0.80144136    -0.73940
O401        O  0.28003252  0.06931860  0.74768342    -0.62560
O402        O  0.22309048  0.02999165  0.80413504    -0.70970
O403        O  0.22278106  0.99539630  0.76724076    -0.70530
O404        O  0.27921268  0.03448068  0.71112741    -0.61780
O405        O  0.28049779  0.99575560  0.76438170    -0.74290
O406        O  0.22048790  0.03430614  0.71388716    -0.73070
Cu407      Cu  0.25177653  0.05091289  0.77727057     1.04560
Cu408      Cu  0.25068092  0.01386285  0.73783677     1.04330
C409        C  0.21178513  0.05781919  0.72397053     0.93240
C410        C  0.29061386  0.00675902  0.79089876     0.92370
C411        C  0.28857032  0.05796107  0.72053743     0.84520
C412        C  0.21423512  0.00630533  0.79460542     0.90790
N413        N  0.16942836  0.95679200  0.83628948    -0.27310
N414        N  0.16138925  0.97980299  0.85134802    -0.35170
C415        C  0.17634253  0.00114197  0.83933022     0.01030
C416        C  0.19429062  0.99097528  0.81523505     0.07060
C417        C  0.18932704  0.96285136  0.81394268    -0.06040
H418        H  0.17388587  0.02247298  0.84700304     0.07730
H419        H  0.19958738  0.94782120  0.79811058     0.08930
Cu420      Cu  0.12943345  0.98070039  0.88608482     0.44170
Cu421      Cu  0.15368520  0.91802202  0.84722906     0.41990
Cu422      Cu  0.10291875  0.91371664  0.91364727     0.43880
N423        N  0.09674167  0.97566056  0.91926322    -0.34690
N424        N  0.08792560  0.95143900  0.93047492    -0.28950
C425        C  0.06686876  0.95558220  0.95196597    -0.05050
C426        C  0.06197996  0.98368323  0.95387076     0.07170
C427        C  0.08117428  0.99579030  0.93278273     0.00960
H428        H  0.05537761  0.93929229  0.96433855     0.08620
H429        H  0.08370026  0.01762547  0.92767159     0.07690
N430        N  0.11845218  0.87947686  0.88851359    -0.36140
N431        N  0.13668653  0.88119058  0.86381438    -0.28320
C432        C  0.14221816  0.85563579  0.85232390    -0.03560
C433        C  0.12655452  0.83703397  0.87050678     0.05050
C434        C  0.11192100  0.85272645  0.89344868     0.03140
H435        H  0.15678570  0.85094547  0.83248288     0.08250
H436        H  0.09756658  0.84527447  0.91225255     0.07080
N437        N  0.41667392  0.59746073  0.89445576    -0.27310
N438        N  0.40995913  0.57473097  0.87782390    -0.35170
C439        C  0.42577765  0.55373112  0.88880777     0.01030
C440        C  0.44299702  0.56384392  0.91377692     0.07060
C441        C  0.43665489  0.59157442  0.91671406    -0.06040
H442        H  0.42460124  0.53269523  0.87958235     0.07730
H443        H  0.44619334  0.60651634  0.93339513     0.08930
Cu444      Cu  0.37910620  0.57404836  0.84172777     0.44170
Cu445      Cu  0.39988790  0.63582797  0.88450975     0.41990
Cu446      Cu  0.35593711  0.64135460  0.81108564     0.43880
N447        N  0.34733507  0.57949261  0.80747857    -0.34690
N448        N  0.33963228  0.60369834  0.79515943    -0.28950
C449        C  0.31868122  0.59965308  0.77341300    -0.05050
C450        C  0.31276335  0.57166268  0.77248891     0.07170
C451        C  0.33121810  0.55953429  0.79441753     0.00960
H452        H  0.30796898  0.61595978  0.76016365     0.08620
H453        H  0.33285511  0.53778348  0.80045487     0.07690
N454        N  0.37142723  0.67527218  0.83735930    -0.36140
N455        N  0.38620334  0.67300423  0.86517448    -0.28320
C456        C  0.39167979  0.69835358  0.87736728    -0.03560
C457        C  0.38044412  0.71782489  0.85576640     0.05050
C458        C  0.36745500  0.70226542  0.83089145     0.03140
H459        H  0.40245351  0.70189852  0.90071972     0.08250
H460        H  0.35577274  0.71003440  0.80969399     0.07080
N461        N  0.41544844  0.45142243  0.54699854    -0.27310
N462        N  0.40696041  0.47565164  0.55849718    -0.35170
C463        C  0.42259579  0.49574045  0.54489008     0.01030
C464        C  0.44147570  0.48359641  0.52344851     0.07060
C465        C  0.43633615  0.45551883  0.52523535    -0.06280
H466        H  0.42029610  0.51757788  0.55013210     0.07730
H467        H  0.44750843  0.43920895  0.51253064     0.08930
Cu468      Cu  0.37450263  0.48076310  0.59202342     0.44170
Cu469      Cu  0.40011075  0.41373025  0.56351698     0.41990
Cu470      Cu  0.34969984  0.41805678  0.63029742     0.43880
N471        N  0.34259801  0.47985374  0.62687344    -0.34690
N472        N  0.33445819  0.45682533  0.64183259    -0.28950
C473        C  0.31442293  0.46280280  0.66400590    -0.05050
C474        C  0.30944610  0.49089122  0.66267425     0.07170
C475        C  0.32756272  0.50112727  0.63877711     0.00960
H476        H  0.30394449  0.44771151  0.67956492     0.08620
H477        H  0.32996579  0.52244300  0.63102827     0.07690
N478        N  0.36507486  0.38113911  0.61197120    -0.36140
N479        N  0.38343297  0.37943791  0.58742422    -0.28320
C480        C  0.38910069  0.35263283  0.58161564    -0.03560
C481        C  0.37319833  0.33682541  0.60319127     0.05050
C482        C  0.35844682  0.35551901  0.62231924     0.03140
H483        H  0.40370479  0.34520694  0.56310576     0.08250
H484        H  0.34427649  0.35091729  0.64262024     0.07080
N485        N  0.16776752  0.60406477  0.80034378    -0.27310
N486        N  0.15908337  0.57980768  0.81158979    -0.35170
C487        C  0.17430447  0.55969812  0.79744429     0.01030
C488        C  0.19311857  0.57185294  0.77588902     0.07060
C489        C  0.18837773  0.59996661  0.77819233    -0.06040
H490        H  0.17169010  0.53783265  0.80229310     0.07730
H491        H  0.19959741  0.61628046  0.76550089     0.08930
Cu492      Cu  0.12669217  0.57470182  0.84517761     0.44170
Cu493      Cu  0.15295352  0.64172474  0.81770309     0.41990
Cu494      Cu  0.10230821  0.63725154  0.88431042     0.43880
N495        N  0.09447714  0.57553280  0.87953840    -0.34690
N496        N  0.08635410  0.59847927  0.89467516    -0.28950
C497        C  0.06600039  0.59239831  0.91638833    -0.05050
C498        C  0.06083458  0.56433179  0.91458286     0.07170
C499        C  0.07914032  0.55421930  0.89086838     0.00960
H500        H  0.05547542  0.60739926  0.93199956     0.08620
H501        H  0.08145125  0.53296012  0.88283693     0.07690
N502        N  0.11932000  0.67410523  0.86787348    -0.36140
N503        N  0.13749154  0.67588985  0.84311079    -0.28320
C504        C  0.14397161  0.70266159  0.83824057    -0.03560
C505        C  0.12937462  0.71828788  0.86128898     0.05050
C506        C  0.11378156  0.69962680  0.87946761     0.03140
H507        H  0.15824877  0.71017672  0.81938650     0.08250
H508        H  0.09923164  0.70425610  0.89934965     0.07080
O509        O  0.47289257  0.55981831  0.96049678    -0.72960
O510        O  0.03081793  0.52105588  0.51437276    -0.73940
O511        O  0.03064522  0.55997212  0.96098837    -0.62560
O512        O  0.47204972  0.52105266  0.51379881    -0.70970
O513        O  0.47249836  0.48622055  0.97722769    -0.70530
O514        O  0.03154906  0.52541233  0.92405970    -0.61780
O515        O  0.03071365  0.48617820  0.97787080    -0.74290
O516        O  0.47259585  0.52534369  0.92343052    -0.73070
Cu517      Cu  0.00160969  0.54159562  0.98874264     1.04560
Cu518      Cu  0.00185723  0.50455724  0.94927475     1.04330
C519        C  0.46373920  0.54884954  0.93343739     0.93240
C520        C  0.03984309  0.49753567  0.50474844     0.92370
C521        C  0.04013564  0.54905326  0.93410485     0.84520
C522        C  0.46300905  0.49758754  0.50388505     0.90790
O523        O  0.22321220  0.53431847  0.76510521    -0.72960
O524        O  0.28022785  0.49520395  0.71003675    -0.73940
O525        O  0.28197992  0.53423270  0.76334724    -0.62560
O526        O  0.22243504  0.49542618  0.71183728    -0.70970
O527        O  0.22140454  0.52983439  0.67480037    -0.70530
O528        O  0.28118254  0.56900271  0.72680390    -0.61780
O529        O  0.28038468  0.52969760  0.67309736    -0.74290
O530        O  0.22297987  0.56908765  0.72854273    -0.73070
Cu531      Cu  0.25199697  0.51367096  0.73891150     1.04560
Cu532      Cu  0.25146768  0.55062654  0.69943843     1.04330
C533        C  0.21409027  0.55779226  0.75554878     0.93240
C534        C  0.28914925  0.50610166  0.68284804     0.92370
C535        C  0.29094831  0.55768094  0.75329858     0.84520
C536        C  0.21263567  0.50637887  0.68516843     0.90790
N537        N  0.08654656  0.45136422  0.54918625    -0.27310
N538        N  0.09469179  0.47564330  0.56103917    -0.35170
C539        C  0.07932938  0.49566841  0.54701934     0.01030
C540        C  0.06094884  0.48349534  0.52491307     0.07060
C541        C  0.06610305  0.45541222  0.52676352    -0.06040
H542        H  0.08148235  0.51750197  0.55244679     0.07730
H543        H  0.05522503  0.43907429  0.51363160     0.08930
Cu544      Cu  0.12631998  0.48108687  0.59559067     0.44170
Cu545      Cu  0.10176533  0.41370720  0.56632290     0.41990
Cu546      Cu  0.14728325  0.41944722  0.63834607     0.43880
N547        N  0.15750760  0.48050451  0.63129883    -0.34690
N548        N  0.16428987  0.45784448  0.64790218    -0.28950
C549        C  0.18468469  0.46375976  0.66963331    -0.05050
C550        C  0.19124984  0.49143200  0.66635624     0.07170
C551        C  0.17370850  0.50148581  0.64176676     0.00960
H552        H  0.19442308  0.44884578  0.68607299     0.08620
H553        H  0.17266588  0.52244533  0.63234079     0.07690
N554        N  0.13311886  0.38222801  0.61946647    -0.36140
N555        N  0.11731822  0.37987061  0.59247129    -0.28320
C556        C  0.11293014  0.35284921  0.58630351    -0.03560
C557        C  0.12690634  0.33750117  0.61035011     0.05050
C558        C  0.13906611  0.35691367  0.63128026     0.03140
H559        H  0.10043090  0.34491377  0.56585291     0.08250
H560        H  0.15074189  0.35321882  0.65398148     0.07080
C561        C  0.14125553  0.79164435  0.89208681    -0.05800
C562        C  0.12685268  0.80668231  0.86760505     0.00130
C563        C  0.11315403  0.79269476  0.84108791    -0.08440
C564        C  0.11458998  0.76367435  0.83977738    -0.05820
C565        C  0.12900822  0.74863636  0.86424704     0.00120
C566        C  0.14268356  0.76262334  0.89078364    -0.08350
C567        C  0.15914794  0.74692399  0.91704463     0.62030
H568        H  0.15155229  0.80289851  0.91210770     0.12720
H569        H  0.10429722  0.75242153  0.81975229     0.12730
C570        C  0.09666579  0.80839498  0.81484975     0.62260
F571        F  0.17214333  0.76456688  0.93954937    -0.22910
F572        F  0.17914693  0.73118194  0.90129314    -0.20240
F573        F  0.14185663  0.72971537  0.93516499    -0.19910
F574        F  0.11393775  0.82561275  0.79671490    -0.19960
F575        F  0.07667483  0.82412856  0.83062983    -0.20290
F576        F  0.08365696  0.79075294  0.79235566    -0.22960
C577        C  0.35568623  0.76213541  0.84990196    -0.05800
C578        C  0.38014246  0.74855133  0.85895104     0.00130
C579        C  0.40335887  0.76462650  0.86887050    -0.08440
C580        C  0.40088555  0.79361034  0.86956723    -0.05820
C581        C  0.37642175  0.80719322  0.86056612     0.00120
C582        C  0.35321611  0.79112518  0.85059121    -0.08350
C583        C  0.32571751  0.80383543  0.84089063     0.62030
H584        H  0.33821114  0.74968161  0.84218570     0.12720
H585        H  0.41835765  0.80606223  0.87730145     0.12730
C586        C  0.43087034  0.75193789  0.87855504     0.62260
F587        F  0.30476378  0.78433405  0.84058929    -0.22910
F588        F  0.32751020  0.81484888  0.80884364    -0.20240
F589        F  0.31832797  0.82417852  0.86366996    -0.19910
F590        F  0.43819128  0.73148040  0.85589526    -0.19960
F591        F  0.42915123  0.74108743  0.91069077    -0.20290
F592        F  0.45183725  0.77142582  0.87863058    -0.22960
C593        C  0.10138381  0.29334385  0.61141615    -0.05800
C594        C  0.12687467  0.30695634  0.61378191     0.00130
C595        C  0.15128747  0.29116650  0.61780746    -0.08440
C596        C  0.14906284  0.26220417  0.61983297    -0.05820
C597        C  0.12357009  0.24859014  0.61746832     0.00120
C598        C  0.09915812  0.26438278  0.61343263    -0.08350
C599        C  0.07073397  0.25118194  0.61195321     0.62030
H600        H  0.08302081  0.30573412  0.60802320     0.12720
H601        H  0.16742752  0.24981548  0.62321959     0.12730
C602        C  0.17970835  0.30437727  0.61924292     0.62260
F603        F  0.05004334  0.27058791  0.61594740    -0.22910
F604        F  0.06781585  0.23183475  0.63737271    -0.20240
F605        F  0.06697779  0.23861640  0.58100524    -0.19910
F606        F  0.18347070  0.31699917  0.65015561    -0.19960
F607        F  0.18260864  0.32368433  0.59377473    -0.20290
F608        F  0.20040365  0.28497118  0.61528515    -0.22960
C609        C  0.39759635  0.29405366  0.61868727    -0.05800
C610        C  0.37346849  0.30648772  0.60664306     0.00130
C611        C  0.35046403  0.28993553  0.59782341    -0.08440
C612        C  0.35231434  0.26111854  0.60188580    -0.05820
C613        C  0.37643305  0.24868605  0.61395594     0.00120
C614        C  0.39944572  0.26523604  0.62275427    -0.08350
C615        C  0.42548634  0.25256374  0.63718833     0.62030
H616        H  0.41492527  0.30720254  0.62515045     0.12720
H617        H  0.33498160  0.24797086  0.59543416     0.12730
C618        C  0.32442262  0.30260778  0.58339404     0.62260
F619        F  0.44430401  0.27256352  0.64706676    -0.22910
F620        F  0.43794100  0.23605305  0.61319435    -0.20240
F621        F  0.41900949  0.23671889  0.66512099    -0.19910
F622        F  0.33090268  0.31848966  0.55549360    -0.19960
F623        F  0.31194616  0.31908165  0.60740813    -0.20290
F624        F  0.30562319  0.28260694  0.57346793    -0.22960
N625        N  0.91577549  0.09825385  0.08027855    -0.27310
N626        N  0.90759745  0.07530798  0.09539503    -0.35170
C627        C  0.92304022  0.05406419  0.08422741     0.01030
C628        C  0.94148196  0.06423196  0.06066411     0.07060
C629        C  0.93625839  0.09224786  0.05874420    -0.06040
H630        H  0.92081103  0.03283509  0.09239300     0.07730
H631        H  0.94695113  0.10729888  0.04334469     0.08930
Cu632      Cu  0.87543224  0.07449655  0.12988553     0.44170
Cu633      Cu  0.90024704  0.13703113  0.09107447     0.41990
Cu634      Cu  0.84993521  0.14163128  0.15795566     0.43880
N635        N  0.84324239  0.07973964  0.16376676    -0.34690
N636        N  0.83484349  0.10402959  0.17517037    -0.28950
C637        C  0.81438863  0.10002382  0.19757128    -0.05050
C638        C  0.80942752  0.07193597  0.19987511     0.07170
C639        C  0.82796269  0.05969682  0.17806299     0.00960
H640        H  0.80345349  0.11638524  0.21048499     0.08620
H641        H  0.83037795  0.03781607  0.17318340     0.07690
N642        N  0.86646914  0.17581666  0.13363217    -0.36140
N643        N  0.88478460  0.17401090  0.10904803    -0.28320
C644        C  0.89138637  0.19958292  0.09849959    -0.03560
C645        C  0.87665851  0.21835829  0.11753121     0.05050
C646        C  0.86080198  0.20264719  0.13926275     0.03140
H647        H  0.90555480  0.20409539  0.07816664     0.08250
H648        H  0.84625861  0.21015822  0.15779273     0.07080
O649        O  0.97100667  0.02552862  0.05181672    -0.72960
O650        O  0.53049543  0.98637199  0.99959641    -0.73940
O651        O  0.52999909  0.02557504  0.05340505    -0.62560
O652        O  0.97228609  0.98626413  0.99803059    -0.70970
O653        O  0.97274279  0.02107210  0.46153088    -0.70530
O654        O  0.53016180  0.06001923  0.01639632    -0.61780
O655        O  0.53150284  0.02117204  0.46309040    -0.74290
O656        O  0.97236801  0.06002688  0.01491509    -0.73070
Cu657      Cu  0.50091703  0.00471128  0.02708579     1.04560
Cu658      Cu  0.50171038  0.04169727  0.48765814     1.04330
C659        C  0.96251441  0.04908904  0.04159243     0.93240
C660        C  0.54032432  0.99771451  0.47311390     0.92370
C661        C  0.53904034  0.04907987  0.04355351     0.84520
C662        C  0.96347799  0.99758585  0.47103059     0.90790
N663        N  0.66395633  0.10404019  0.18150985    -0.27310
N664        N  0.65559240  0.07979297  0.16977811    -0.35170
C665        C  0.67122612  0.05973594  0.18326583     0.01030
C666        C  0.69002859  0.07185212  0.20487873     0.07060
C667        C  0.68483022  0.09993460  0.20331104    -0.06040
H668        H  0.66908616  0.03793304  0.17765012     0.07730
H669        H  0.69604451  0.11624604  0.21606481     0.08930
Cu670      Cu  0.62365379  0.07439665  0.13562786     0.44170
Cu671      Cu  0.64868650  0.14177918  0.16475439     0.41990
Cu672      Cu  0.60302815  0.13611046  0.09294993     0.43880
N673        N  0.59273576  0.07502140  0.09955231    -0.34690
N674        N  0.58611359  0.09773931  0.08297179    -0.28950
C675        C  0.56615944  0.09183408  0.06063705    -0.05050
C676        C  0.55970781  0.06410140  0.06346878     0.07170
C677        C  0.57685460  0.05400261  0.08845547     0.00960
H678        H  0.55674092  0.10676037  0.04393689     0.08620
H679        H  0.57797515  0.03295395  0.09756751     0.07690
N680        N  0.61724191  0.17332101  0.11180718    -0.36140
N681        N  0.63310529  0.17566137  0.13874640    -0.28320
C682        C  0.63754197  0.20267817  0.14489889    -0.03560
C683        C  0.62353257  0.21804237  0.12089370     0.05050
C684        C  0.61130601  0.19864006  0.10000562     0.03140
H685        H  0.65009856  0.21059850  0.16530575     0.08250
H686        H  0.59959682  0.20234115  0.07733361     0.07080
N687        N  0.83935513  0.95837960  0.32707606    -0.27310
N688        N  0.84612067  0.98097549  0.34394885    -0.35170
C689        C  0.82979675  0.00189588  0.33389834     0.01030
C690        C  0.81216770  0.99187166  0.30931342     0.07060
C691        C  0.81881712  0.96427928  0.30559993    -0.06040
H692        H  0.83078649  0.02278321  0.34364360     0.07730
H693        H  0.80903485  0.94940057  0.28904558     0.08930
Cu694      Cu  0.87731740  0.98152994  0.37959348     0.44170
Cu695      Cu  0.85652882  0.92003687  0.33602829     0.41990
Cu696      Cu  0.90030071  0.91409853  0.40962606     0.43880
N697        N  0.90869730  0.97592597  0.41433273    -0.34690
N698        N  0.91627363  0.95163733  0.42652049    -0.28950
C699        C  0.93668522  0.95558242  0.44905734    -0.05050
C700        C  0.94239026  0.98360381  0.45063793     0.07170
C701        C  0.92437594  0.99584451  0.42825457     0.00960
H702        H  0.94712465  0.93921140  0.46251260     0.08620
H703        H  0.92263940  0.01766211  0.42263018     0.07690
N704        N  0.88501858  0.88034951  0.38280434    -0.36140
N705        N  0.87031538  0.88277017  0.35494866    -0.28320
C706        C  0.86488912  0.85748905  0.34250309    -0.03560
C707        C  0.87609431  0.83790177  0.36396844     0.05050
C708        C  0.88900058  0.85332236  0.38903431     0.03140
H709        H  0.85414074  0.85407015  0.31910357     0.08250
H710        H  0.90060715  0.84543261  0.41022723     0.07080
O711        O  0.72185102  0.06920942  0.25032111    -0.72960
O712        O  0.78202121  0.03020700  0.30144134    -0.73940
O713        O  0.78003252  0.06931860  0.24768341    -0.62560
O714        O  0.72309049  0.02999165  0.30413504    -0.70970
O715        O  0.72278106  0.99539630  0.26724077    -0.70530
O716        O  0.77921267  0.03448068  0.21112740    -0.61780
O717        O  0.78049779  0.99575560  0.26438169    -0.74290
O718        O  0.72048789  0.03430614  0.21388717    -0.73070
Cu719      Cu  0.75177654  0.05091289  0.27727056     1.04560
Cu720      Cu  0.75068091  0.01386285  0.23783677     1.04330
C721        C  0.71178513  0.05781919  0.22397053     0.93240
C722        C  0.79061387  0.00675902  0.29089874     0.92370
C723        C  0.78857032  0.05796106  0.22053741     0.84520
C724        C  0.71423513  0.00630533  0.29460543     0.90790
N725        N  0.66942837  0.95679200  0.33628950    -0.27310
N726        N  0.66138925  0.97980300  0.35134802    -0.35170
C727        C  0.67634253  0.00114198  0.33933022     0.01030
C728        C  0.69429063  0.99097528  0.31523506     0.07060
C729        C  0.68932705  0.96285137  0.31394271    -0.06040
H730        H  0.67388586  0.02247299  0.34700303     0.07730
H731        H  0.69958740  0.94782121  0.29811061     0.08930
Cu732      Cu  0.62943344  0.98070040  0.38608481     0.44170
Cu733      Cu  0.65368521  0.91802203  0.34722908     0.41990
Cu734      Cu  0.60291874  0.91371665  0.41364725     0.43880
N735        N  0.59674166  0.97566057  0.41926320    -0.34690
N736        N  0.58792558  0.95143902  0.43047491    -0.28950
C737        C  0.56686874  0.95558221  0.45196595    -0.05050
C738        C  0.56197995  0.98368324  0.45387075     0.07170
C739        C  0.58117427  0.99579032  0.43278272     0.00960
H740        H  0.55537760  0.93929230  0.46433853     0.08620
H741        H  0.58370025  0.01762548  0.42767159     0.07690
N742        N  0.61845217  0.87947687  0.38851358    -0.36140
N743        N  0.63668654  0.88119058  0.36381440    -0.28320
C744        C  0.64221817  0.85563580  0.35232392    -0.03560
C745        C  0.62655452  0.83703398  0.37050678     0.05050
C746        C  0.61192098  0.85272646  0.39344867     0.03140
H747        H  0.65678572  0.85094548  0.33248290     0.08250
H748        H  0.59756656  0.84527448  0.41225252     0.07080
N749        N  0.91667392  0.59746073  0.39445575    -0.27310
N750        N  0.90995913  0.57473097  0.37782388    -0.35170
C751        C  0.92577766  0.55373113  0.38880775     0.01030
C752        C  0.94299703  0.56384393  0.41377690     0.07060
C753        C  0.93665489  0.59157442  0.41671405    -0.06040
H754        H  0.92460126  0.53269523  0.37958234     0.07730
H755        H  0.94619334  0.60651635  0.43339513     0.08930
Cu756      Cu  0.87910621  0.57404836  0.34172776     0.44170
Cu757      Cu  0.89988789  0.63582797  0.38450975     0.41990
Cu758      Cu  0.85593710  0.64135460  0.31108565     0.43880
N759        N  0.84733507  0.57949261  0.30747857    -0.34690
N760        N  0.83963227  0.60369834  0.29515944    -0.28950
C761        C  0.81868121  0.59965308  0.27341300    -0.05050
C762        C  0.81276334  0.57166268  0.27248891     0.07170
C763        C  0.83121809  0.55953429  0.29441753     0.00960
H764        H  0.80796896  0.61595978  0.26016366     0.08620
H765        H  0.83285510  0.53778348  0.30045487     0.07690
N766        N  0.87142721  0.67527218  0.33735932    -0.36140
N767        N  0.88620333  0.67300423  0.36517450    -0.28320
C768        C  0.89167977  0.69835358  0.37736730    -0.03560
C769        C  0.88044410  0.71782488  0.35576642     0.05050
C770        C  0.86745498  0.70226542  0.33089147     0.03140
H771        H  0.90245350  0.70189852  0.40071973     0.08250
H772        H  0.85577272  0.71003440  0.30969400     0.07080
N773        N  0.91544845  0.45142243  0.04699857    -0.27310
N774        N  0.90696043  0.47565163  0.05849722    -0.35170
C775        C  0.92259581  0.49574044  0.04489011     0.01030
C776        C  0.94147570  0.48359641  0.02344854     0.07060
C777        C  0.93633615  0.45551882  0.02523537    -0.06280
H778        H  0.92029612  0.51757788  0.05013214     0.07730
H779        H  0.94750843  0.43920895  0.01253065     0.08930
Cu780      Cu  0.87450266  0.48076310  0.09202347     0.44170
Cu781      Cu  0.90011076  0.41373025  0.06351701     0.41990
Cu782      Cu  0.84969985  0.41805677  0.13029746     0.43880
N783        N  0.84259803  0.47985373  0.12687348    -0.34690
N784        N  0.83445821  0.45682532  0.14183263    -0.28950
C785        C  0.81442294  0.46280279  0.16400593    -0.05050
C786        C  0.80944612  0.49089121  0.16267428     0.07170
C787        C  0.82756274  0.50112727  0.13877715     0.00960
H788        H  0.80394450  0.44771151  0.17956495     0.08620
H789        H  0.82996581  0.52244299  0.13102830     0.07690
N790        N  0.86507486  0.38113910  0.11197123    -0.36140
N791        N  0.88343298  0.37943790  0.08742425    -0.28320
C792        C  0.88910070  0.35263283  0.08161565    -0.03560
C793        C  0.87319833  0.33682540  0.10319128     0.05050
C794        C  0.85844683  0.35551900  0.12231926     0.03140
H795        H  0.90370479  0.34520694  0.06310577     0.08250
H796        H  0.84427650  0.35091728  0.14262026     0.07080
N797        N  0.66776750  0.60406478  0.30034374    -0.27310
N798        N  0.65908335  0.57980769  0.31158975    -0.35170
C799        C  0.67430446  0.55969813  0.29744427     0.01030
C800        C  0.69311855  0.57185295  0.27588899     0.07060
C801        C  0.68837771  0.59996662  0.27819229    -0.06040
H802        H  0.67169009  0.53783266  0.30229308     0.07730
H803        H  0.69959739  0.61628047  0.26550085     0.08930
Cu804      Cu  0.62669216  0.57470183  0.34517759     0.44170
Cu805      Cu  0.65295350  0.64172475  0.31770305     0.41990
Cu806      Cu  0.60230821  0.63725155  0.38431041     0.43880
N807        N  0.59447714  0.57553281  0.37953839    -0.34690
N808        N  0.58635410  0.59847928  0.39467516    -0.28950
C809        C  0.56600040  0.59239832  0.41638834    -0.05050
C810        C  0.56083458  0.56433179  0.41458286     0.07170
C811        C  0.57914032  0.55421931  0.39086838     0.00960
H812        H  0.55547543  0.60739927  0.43199957     0.08620
H813        H  0.58145125  0.53296013  0.38283693     0.07690
N814        N  0.61931999  0.67410524  0.36787345    -0.36140
N815        N  0.63749152  0.67588986  0.34311075    -0.28320
C816        C  0.64397159  0.70266160  0.33824054    -0.03560
C817        C  0.62937461  0.71828789  0.36128895     0.05050
C818        C  0.61378155  0.69962681  0.37946758     0.03140
H819        H  0.65824874  0.71017673  0.31938646     0.08250
H820        H  0.59923165  0.70425611  0.39934964     0.07080
O821        O  0.97289258  0.55981832  0.46049677    -0.72960
O822        O  0.53081794  0.52105587  0.01437276    -0.73940
O823        O  0.53064522  0.55997212  0.46098838    -0.62560
O824        O  0.97204972  0.52105266  0.01379882    -0.70970
O825        O  0.97249837  0.48622056  0.47722768    -0.70530
O826        O  0.53154907  0.52541233  0.42405971    -0.61780
O827        O  0.53071365  0.48617821  0.47787080    -0.74290
O828        O  0.97259586  0.52534370  0.42343051    -0.73070
Cu829      Cu  0.50160969  0.54159563  0.48874263     1.04560
Cu830      Cu  0.50185724  0.50455724  0.44927475     1.04330
C831        C  0.96373921  0.54884954  0.43343738     0.93240
C832        C  0.53984309  0.49753565  0.00474843     0.92370
C833        C  0.54013565  0.54905327  0.43410486     0.84520
C834        C  0.96300905  0.49758754  0.00388507     0.90790
O835        O  0.72321219  0.53431847  0.26510519    -0.72960
O836        O  0.78022785  0.49520395  0.21003676    -0.73940
O837        O  0.78197990  0.53423271  0.26334725    -0.62560
O838        O  0.72243503  0.49542619  0.21183727    -0.70970
O839        O  0.72140455  0.52983439  0.17480036    -0.70530
O840        O  0.78118254  0.56900271  0.22680390    -0.61780
O841        O  0.78038469  0.52969759  0.17309737    -0.74290
O842        O  0.72297986  0.56908766  0.22854271    -0.73070
Cu843      Cu  0.75199696  0.51367097  0.23891150     1.04560
Cu844      Cu  0.75146768  0.55062654  0.19943842     1.04330
C845        C  0.71409026  0.55779227  0.25554876     0.93240
C846        C  0.78914926  0.50610166  0.18284806     0.92370
C847        C  0.79094830  0.55768095  0.25329859     0.84520
C848        C  0.71263567  0.50637887  0.18516842     0.90790
N849        N  0.58654657  0.45136422  0.04918623    -0.27310
N850        N  0.59469181  0.47564329  0.06103915    -0.35170
C851        C  0.57932939  0.49566840  0.04701932     0.01030
C852        C  0.56094885  0.48349533  0.02491306     0.07060
C853        C  0.56610306  0.45541221  0.02676351    -0.06040
H854        H  0.58148236  0.51750196  0.05244677     0.07730
H855        H  0.55522503  0.43907427  0.01363159     0.08930
Cu856      Cu  0.62632000  0.48108686  0.09559064     0.44170
Cu857      Cu  0.60176534  0.41370719  0.06632288     0.41990
Cu858      Cu  0.64728325  0.41944723  0.13834607     0.43880
N859        N  0.65750762  0.48050451  0.13129881    -0.34690
N860        N  0.66428987  0.45784448  0.14790216    -0.28950
C861        C  0.68468469  0.46375976  0.16963330    -0.05050
C862        C  0.69124985  0.49143200  0.16635623     0.07170
C863        C  0.67370852  0.50148580  0.14176674     0.00960
H864        H  0.69442308  0.44884579  0.18607299     0.08620
H865        H  0.67266590  0.52244533  0.13234076     0.07690
N866        N  0.63311886  0.38222801  0.11946647    -0.36140
N867        N  0.61731823  0.37987060  0.09247129    -0.28320
C868        C  0.61293015  0.35284920  0.08630351    -0.03560
C869        C  0.62690635  0.33750117  0.11035011     0.05050
C870        C  0.63906611  0.35691367  0.13128027     0.03140
H871        H  0.60043091  0.34491377  0.06585291     0.08250
H872        H  0.65074189  0.35321882  0.15398149     0.07080
C873        C  0.64125554  0.79164436  0.39208679    -0.05800
C874        C  0.62685267  0.80668232  0.36760504     0.00130
C875        C  0.61315400  0.79269477  0.34108792    -0.08440
C876        C  0.61458995  0.76367436  0.33977738    -0.05820
C877        C  0.62900821  0.74863637  0.36424701     0.00120
C878        C  0.64268357  0.76262334  0.39078360    -0.08350
C879        C  0.65914796  0.74692399  0.41704457     0.62030
H880        H  0.65155232  0.80289851  0.41210767     0.12720
H881        H  0.60429718  0.75242155  0.31975230     0.12730
C882        C  0.59666575  0.80839501  0.31484978     0.62260
F883        F  0.67214337  0.76456687  0.43954930    -0.22910
F884        F  0.67914694  0.73118194  0.40129306    -0.20240
F885        F  0.64185667  0.72971537  0.43516494    -0.19910
F886        F  0.61393769  0.82561278  0.29671493    -0.19960
F887        F  0.57667480  0.82412857  0.33062988    -0.20290
F888        F  0.58365690  0.79075297  0.29235569    -0.22960
C889        C  0.85568620  0.76213541  0.34990198    -0.05800
C890        C  0.88014244  0.74855133  0.35895105     0.00130
C891        C  0.90335886  0.76462650  0.36887050    -0.08440
C892        C  0.90088554  0.79361034  0.36956722    -0.05820
C893        C  0.87642174  0.80719322  0.36056612     0.00120
C894        C  0.85321609  0.79112518  0.35059123    -0.08350
C895        C  0.82571749  0.80383543  0.34089067     0.62030
H896        H  0.83821111  0.74968161  0.34218574     0.12720
H897        H  0.91835765  0.80606222  0.37730143     0.12730
C898        C  0.93087033  0.75193788  0.37855502     0.62260
F899        F  0.80476375  0.78433405  0.34058935    -0.22910
F900        F  0.82751016  0.81484888  0.30884368    -0.20240
F901        F  0.81832797  0.82417853  0.36367000    -0.19910
F902        F  0.93819126  0.73148039  0.35589523    -0.19960
F903        F  0.92915124  0.74108743  0.41069075    -0.20290
F904        F  0.95183724  0.77142581  0.37863054    -0.22960
C905        C  0.60138382  0.29334385  0.11141615    -0.05800
C906        C  0.62687467  0.30695634  0.11378192     0.00130
C907        C  0.65128748  0.29116650  0.11780749    -0.08440
C908        C  0.64906284  0.26220417  0.11983300    -0.05820
C909        C  0.62357009  0.24859014  0.11746833     0.00120
C910        C  0.59915812  0.26438278  0.11343263    -0.08350
C911        C  0.57073397  0.25118194  0.11195318     0.62030
H912        H  0.58302081  0.30573412  0.10802318     0.12720
H913        H  0.66742752  0.24981547  0.12321964     0.12730
C914        C  0.67970835  0.30437727  0.11924298     0.62260
F915        F  0.55004334  0.27058791  0.11594736    -0.22910
F916        F  0.56781584  0.23183475  0.13737269    -0.20240
F917        F  0.56697781  0.23861640  0.08100521    -0.19910
F918        F  0.68347068  0.31699917  0.15015568    -0.19960
F919        F  0.68260866  0.32368433  0.09377479    -0.20290
F920        F  0.70040365  0.28497117  0.11528523    -0.22960
C921        C  0.89759636  0.29405365  0.11868727    -0.05800
C922        C  0.87346850  0.30648772  0.10664306     0.00130
C923        C  0.85046403  0.28993552  0.09782341    -0.08440
C924        C  0.85231434  0.26111854  0.10188579    -0.05820
C925        C  0.87643305  0.24868604  0.11395592     0.00120
C926        C  0.89944572  0.26523603  0.12275427    -0.08350
C927        C  0.92548634  0.25256373  0.13718832     0.62030
H928        H  0.91492528  0.30720253  0.12515045     0.12720
H929        H  0.83498160  0.24797085  0.09543414     0.12730
C930        C  0.82442262  0.30260778  0.08339404     0.62260
F931        F  0.94430402  0.27256351  0.14706675    -0.22910
F932        F  0.93794100  0.23605304  0.11319433    -0.20240
F933        F  0.91900949  0.23671888  0.16512097    -0.19910
F934        F  0.83090269  0.31848966  0.05549359    -0.19960
F935        F  0.81194617  0.31908164  0.10740813    -0.20290
F936        F  0.80562320  0.28260695  0.07346793    -0.22960
N937        N  0.91577550  0.09825385  0.58027856    -0.27310
N938        N  0.90759745  0.07530798  0.59539504    -0.35170
C939        C  0.92304021  0.05406419  0.58422741     0.01030
C940        C  0.94148195  0.06423196  0.56066410     0.07060
C941        C  0.93625838  0.09224786  0.55874420    -0.06040
H942        H  0.92081102  0.03283509  0.59239300     0.07730
H943        H  0.94695113  0.10729887  0.54334468     0.08930
Cu944      Cu  0.87543226  0.07449656  0.62988555     0.44170
Cu945      Cu  0.90024705  0.13703114  0.59107450     0.41990
Cu946      Cu  0.84993524  0.14163129  0.65795570     0.43880
N947        N  0.84324241  0.07973965  0.66376679    -0.34690
N948        N  0.83484351  0.10402959  0.67517040    -0.28950
C949        C  0.81438865  0.10002382  0.69757131    -0.05050
C950        C  0.80942754  0.07193597  0.69987513     0.07170
C951        C  0.82796270  0.05969683  0.67806301     0.00960
H952        H  0.80345351  0.11638525  0.71048502     0.08620
H953        H  0.83037797  0.03781607  0.67318341     0.07690
N954        N  0.86646917  0.17581667  0.63363221    -0.36140
N955        N  0.88478462  0.17401091  0.60904806    -0.28320
C956        C  0.89138640  0.19958293  0.59849962    -0.03560
C957        C  0.87665854  0.21835829  0.61753124     0.05050
C958        C  0.86080201  0.20264719  0.63926278     0.03140
H959        H  0.90555483  0.20409539  0.57816667     0.08250
H960        H  0.84625865  0.21015823  0.65779277     0.07080
O961        O  0.97100666  0.02552861  0.55181670    -0.72960
O962        O  0.53049541  0.98637200  0.49959640    -0.73940
O963        O  0.52999908  0.02557505  0.55340505    -0.62560
O964        O  0.97228610  0.98626413  0.49803057    -0.70970
O965        O  0.97274278  0.02107210  0.96153090    -0.70530
O966        O  0.53016179  0.06001923  0.51639633    -0.61780
O967        O  0.53150285  0.02117203  0.96309039    -0.74290
O968        O  0.97236801  0.06002688  0.51491508    -0.73070
Cu969      Cu  0.50091702  0.00471128  0.52708580     1.04560
Cu970      Cu  0.50171039  0.04169726  0.98765813     1.04330
C971        C  0.96251440  0.04908904  0.54159242     0.93240
C972        C  0.54032433  0.99771450  0.97311390     0.92370
C973        C  0.53904033  0.04907987  0.54355351     0.84520
C974        C  0.96347798  0.99758584  0.97103061     0.90790
N975        N  0.66395635  0.10404019  0.68150983    -0.27310
N976        N  0.65559241  0.07979297  0.66977809    -0.35170
C977        C  0.67122612  0.05973594  0.68326582     0.01030
C978        C  0.69002860  0.07185212  0.70487871     0.07060
C979        C  0.68483024  0.09993460  0.70331101    -0.06040
H980        H  0.66908616  0.03793304  0.67765011     0.07730
H981        H  0.69604453  0.11624604  0.71606478     0.08930
Cu982      Cu  0.62365379  0.07439665  0.63562786     0.44170
Cu983      Cu  0.64868652  0.14177918  0.66475437     0.41990
Cu984      Cu  0.60302815  0.13611046  0.59294993     0.43880
N985        N  0.59273576  0.07502140  0.59955231    -0.34690
N986        N  0.58611358  0.09773931  0.58297180    -0.28950
C987        C  0.56615943  0.09183408  0.56063706    -0.05050
C988        C  0.55970780  0.06410140  0.56346879     0.07170
C989        C  0.57685460  0.05400261  0.58845547     0.00960
H990        H  0.55674091  0.10676037  0.54393690     0.08620
H991        H  0.57797514  0.03295395  0.59756751     0.07690
N992        N  0.61724192  0.17332101  0.61180716    -0.36140
N993        N  0.63310531  0.17566137  0.63874637    -0.28320
C994        C  0.63754200  0.20267817  0.64489886    -0.03560
C995        C  0.62353258  0.21804237  0.62089367     0.05050
C996        C  0.61130602  0.19864006  0.60000560     0.03140
H997        H  0.65009859  0.21059851  0.66530571     0.08250
H998        H  0.59959682  0.20234115  0.57733359     0.07080
N999        N  0.83935514  0.95837961  0.82707607    -0.27310
N1000       N  0.84612067  0.98097549  0.84394887    -0.35170
C1001       C  0.82979673  0.00189588  0.83389836     0.01030
C1002       C  0.81216770  0.99187166  0.80931343     0.07060
C1003       C  0.81881713  0.96427928  0.80559993    -0.06040
H1004       H  0.83078646  0.02278321  0.84364363     0.07730
H1005       H  0.80903487  0.94940057  0.78904556     0.08930
Cu1006     Cu  0.87731738  0.98152995  0.87959352     0.44170
Cu1007     Cu  0.85652884  0.92003688  0.83602828     0.41990
Cu1008     Cu  0.90030069  0.91409853  0.90962609     0.43880
N1009       N  0.90869728  0.97592597  0.91433277    -0.34690
N1010       N  0.91627361  0.95163733  0.92652053    -0.28950
C1011       C  0.93668520  0.95558242  0.94905738    -0.05050
C1012       C  0.94239025  0.98360381  0.95063797     0.07170
C1013       C  0.92437592  0.99584451  0.92825460     0.00960
H1014       H  0.94712463  0.93921139  0.96251263     0.08620
H1015       H  0.92263939  0.01766211  0.92263021     0.07690
N1016       N  0.88501857  0.88034952  0.88280435    -0.36140
N1017       N  0.87031539  0.88277018  0.85494865    -0.28320
C1018       C  0.86488914  0.85748906  0.84250308    -0.03560
C1019       C  0.87609431  0.83790178  0.86396843     0.05050
C1020       C  0.88900057  0.85332237  0.88903432     0.03140
H1021       H  0.85414078  0.85407017  0.81910354     0.08250
H1022       H  0.90060713  0.84543261  0.91022725     0.07080
O1023       O  0.72185103  0.06920942  0.75032110    -0.72960
O1024       O  0.78202120  0.03020699  0.80144135    -0.73940
O1025       O  0.78003253  0.06931860  0.74768342    -0.62560
O1026       O  0.72309048  0.02999164  0.80413503    -0.70970
O1027       O  0.72278106  0.99539630  0.76724075    -0.70530
O1028       O  0.77921268  0.03448069  0.71112740    -0.61780
O1029       O  0.78049779  0.99575560  0.76438169    -0.74290
O1030       O  0.72048790  0.03430614  0.71388715    -0.73070
Cu1031     Cu  0.75177653  0.05091289  0.77727056     1.04560
Cu1032     Cu  0.75068092  0.01386285  0.73783676     1.04330
C1033       C  0.71178514  0.05781919  0.72397052     0.93240
C1034       C  0.79061387  0.00675902  0.79089875     0.92370
C1035       C  0.78857033  0.05796107  0.72053743     0.84520
C1036       C  0.71423512  0.00630533  0.79460540     0.90790
N1037       N  0.66942835  0.95679200  0.83628945    -0.27310
N1038       N  0.66138925  0.97980299  0.85134800    -0.35170
C1039       C  0.67634253  0.00114197  0.83933021     0.01030
C1040       C  0.69429062  0.99097527  0.81523503     0.07060
C1041       C  0.68932703  0.96285136  0.81394265    -0.06040
H1042       H  0.67388588  0.02247298  0.84700303     0.07730
H1043       H  0.69958736  0.94782120  0.79811055     0.08930
Cu1044     Cu  0.62943345  0.98070039  0.88608481     0.44170
Cu1045     Cu  0.65368518  0.91802202  0.84722902     0.41990
Cu1046     Cu  0.60291876  0.91371664  0.91364727     0.43880
N1047       N  0.59674168  0.97566056  0.91926321    -0.34690
N1048       N  0.58792561  0.95143901  0.93047492    -0.28950
C1049       C  0.56686877  0.95558220  0.95196597    -0.05050
C1050       C  0.56197997  0.98368323  0.95387076     0.07170
C1051       C  0.58117429  0.99579031  0.93278272     0.00960
H1052       H  0.55537762  0.93929229  0.96433855     0.08620
H1053       H  0.58370026  0.01762547  0.92767159     0.07690
N1054       N  0.61845218  0.87947687  0.88851357    -0.36140
N1055       N  0.63668651  0.88119058  0.86381436    -0.28320
C1056       C  0.64221813  0.85563580  0.85232387    -0.03560
C1057       C  0.62655450  0.83703398  0.87050676     0.05050
C1058       C  0.61192099  0.85272645  0.89344867     0.03140
H1059       H  0.65678567  0.85094548  0.83248284     0.08250
H1060       H  0.59756659  0.84527448  0.91225255     0.07080
N1061       N  0.91667392  0.59746073  0.89445574    -0.27310
N1062       N  0.90995912  0.57473097  0.87782388    -0.35170
C1063       C  0.92577764  0.55373112  0.88880775     0.01030
C1064       C  0.94299702  0.56384392  0.91377690     0.07060
C1065       C  0.93665488  0.59157442  0.91671404    -0.06040
H1066       H  0.92460123  0.53269523  0.87958234     0.07730
H1067       H  0.94619334  0.60651634  0.93339511     0.08930
Cu1068     Cu  0.87910619  0.57404836  0.84172776     0.44170
Cu1069     Cu  0.89988789  0.63582797  0.88450973     0.41990
Cu1070     Cu  0.85593708  0.64135460  0.81108565     0.43880
N1071       N  0.84733506  0.57949261  0.80747857    -0.34690
N1072       N  0.83963226  0.60369834  0.79515943    -0.28950
C1073       C  0.81868120  0.59965307  0.77341299    -0.05050
C1074       C  0.81276334  0.57166267  0.77248890     0.07170
C1075       C  0.83121809  0.55953429  0.79441752     0.00960
H1076       H  0.80796895  0.61595978  0.76016365     0.08620
H1077       H  0.83285510  0.53778348  0.80045485     0.07690
N1078       N  0.87142721  0.67527218  0.83735931    -0.36140
N1079       N  0.88620333  0.67300424  0.86517448    -0.28320
C1080       C  0.89167978  0.69835358  0.87736728    -0.03560
C1081       C  0.88044410  0.71782489  0.85576640     0.05050
C1082       C  0.86745497  0.70226542  0.83089146     0.03140
H1083       H  0.90245351  0.70189852  0.90071971     0.08250
H1084       H  0.85577271  0.71003441  0.80969400     0.07080
N1085       N  0.91544847  0.45142243  0.54699857    -0.27310
N1086       N  0.90696043  0.47565164  0.55849720    -0.35170
C1087       C  0.92259581  0.49574045  0.54489010     0.01030
C1088       C  0.94147572  0.48359642  0.52344854     0.07060
C1089       C  0.93633618  0.45551883  0.52523538    -0.06280
H1090       H  0.92029611  0.51757789  0.55013212     0.07730
H1091       H  0.94750846  0.43920896  0.51253067     0.08930
Cu1092     Cu  0.87450265  0.48076311  0.59202343     0.44170
Cu1093     Cu  0.90011079  0.41373025  0.56351701     0.41990
Cu1094     Cu  0.84969986  0.41805678  0.63029743     0.43880
N1095       N  0.84259802  0.47985374  0.62687344    -0.34690
N1096       N  0.83445820  0.45682533  0.64183259    -0.28950
C1097       C  0.81442293  0.46280279  0.66400589    -0.05050
C1098       C  0.80944610  0.49089121  0.66267424     0.07170
C1099       C  0.82756272  0.50112727  0.63877710     0.00960
H1100       H  0.80394450  0.44771151  0.67956491     0.08620
H1101       H  0.82996578  0.52244299  0.63102826     0.07690
N1102       N  0.86507489  0.38113911  0.61197123    -0.36140
N1103       N  0.88343301  0.37943791  0.58742425    -0.28320
C1104       C  0.88910074  0.35263283  0.58161567    -0.03560
C1105       C  0.87319837  0.33682541  0.60319130     0.05050
C1106       C  0.85844685  0.35551901  0.62231926     0.03140
H1107       H  0.90370484  0.34520694  0.56310579     0.08250
H1108       H  0.84427652  0.35091728  0.64262026     0.07080
N1109       N  0.66776753  0.60406477  0.80034378    -0.27310
N1110       N  0.65908337  0.57980768  0.81158978    -0.35170
C1111       C  0.67430447  0.55969812  0.79744429     0.01030
C1112       C  0.69311857  0.57185294  0.77588901     0.07060
C1113       C  0.68837773  0.59996661  0.77819232    -0.06040
H1114       H  0.67169010  0.53783265  0.80229309     0.07730
H1115       H  0.69959741  0.61628046  0.76550088     0.08930
Cu1116     Cu  0.62669218  0.57470182  0.84517761     0.44170
Cu1117     Cu  0.65295353  0.64172474  0.81770309     0.41990
Cu1118     Cu  0.60230822  0.63725154  0.88431042     0.43880
N1119       N  0.59447715  0.57553280  0.87953840    -0.34690
N1120       N  0.58635411  0.59847927  0.89467516    -0.28950
C1121       C  0.56600041  0.59239832  0.91638833    -0.05050
C1122       C  0.56083459  0.56433179  0.91458286     0.07170
C1123       C  0.57914033  0.55421930  0.89086839     0.00960
H1124       H  0.55547543  0.60739927  0.93199956     0.08620
H1125       H  0.58145126  0.53296012  0.88283694     0.07690
N1126       N  0.61932000  0.67410523  0.86787347    -0.36140
N1127       N  0.63749154  0.67588985  0.84311078    -0.28320
C1128       C  0.64397161  0.70266159  0.83824056    -0.03560
C1129       C  0.62937462  0.71828788  0.86128897     0.05050
C1130       C  0.61378156  0.69962680  0.87946760     0.03140
H1131       H  0.65824877  0.71017673  0.81938649     0.08250
H1132       H  0.59923165  0.70425610  0.89934964     0.07080
O1133       O  0.97289256  0.55981830  0.96049676    -0.72960
O1134       O  0.53081791  0.52105587  0.51437276    -0.73940
O1135       O  0.53064523  0.55997212  0.96098838    -0.62560
O1136       O  0.97204974  0.52105267  0.51379882    -0.70970
O1137       O  0.97249835  0.48622055  0.97722767    -0.70530
O1138       O  0.53154907  0.52541233  0.92405971    -0.61780
O1139       O  0.53071366  0.48617821  0.97787080    -0.74290
O1140       O  0.97259584  0.52534369  0.92343051    -0.73070
Cu1141     Cu  0.50160971  0.54159563  0.98874265     1.04560
Cu1142     Cu  0.50185724  0.50455724  0.94927476     1.04330
C1143       C  0.96373919  0.54884953  0.93343737     0.93240
C1144       C  0.53984307  0.49753566  0.50474844     0.92370
C1145       C  0.54013565  0.54905327  0.93410486     0.84520
C1146       C  0.96300907  0.49758755  0.50388507     0.90790
O1147       O  0.72321220  0.53431846  0.76510519    -0.72960
O1148       O  0.78022785  0.49520394  0.71003673    -0.73940
O1149       O  0.78197991  0.53423270  0.76334723    -0.62560
O1150       O  0.72243503  0.49542618  0.71183727    -0.70970
O1151       O  0.72140453  0.52983438  0.67480036    -0.70530
O1152       O  0.78118254  0.56900270  0.72680388    -0.61780
O1153       O  0.78038468  0.52969759  0.67309734    -0.74290
O1154       O  0.72297986  0.56908765  0.72854271    -0.73070
Cu1155     Cu  0.75199696  0.51367096  0.73891149     1.04560
Cu1156     Cu  0.75146767  0.55062653  0.69943841     1.04330
C1157       C  0.71409027  0.55779226  0.75554877     0.93240
C1158       C  0.78914924  0.50610165  0.68284803     0.92370
C1159       C  0.79094830  0.55768094  0.75329857     0.84520
C1160       C  0.71263566  0.50637886  0.68516843     0.90790
N1161       N  0.58654655  0.45136422  0.54918625    -0.27310
N1162       N  0.59469177  0.47564330  0.56103918    -0.35170
C1163       C  0.57932934  0.49566840  0.54701935     0.01030
C1164       C  0.56094882  0.48349533  0.52491307     0.07060
C1165       C  0.56610303  0.45541221  0.52676352    -0.06040
H1166       H  0.58148231  0.51750196  0.55244681     0.07730
H1167       H  0.55522502  0.43907428  0.51363159     0.08930
Cu1168     Cu  0.62631995  0.48108687  0.59559069     0.44170
Cu1169     Cu  0.60176532  0.41370719  0.56632289     0.41990
Cu1170     Cu  0.64728323  0.41944722  0.63834607     0.43880
N1171       N  0.65750758  0.48050451  0.63129884    -0.34690
N1172       N  0.66428984  0.45784448  0.64790218    -0.28950
C1173       C  0.68468468  0.46375976  0.66963331    -0.05050
C1174       C  0.69124982  0.49143200  0.66635624     0.07170
C1175       C  0.67370848  0.50148580  0.64176677     0.00960
H1176       H  0.69442307  0.44884578  0.68607298     0.08620
H1177       H  0.67266586  0.52244533  0.63234080     0.07690
N1178       N  0.63311885  0.38222801  0.61946646    -0.36140
N1179       N  0.61731822  0.37987060  0.59247128    -0.28320
C1180       C  0.61293015  0.35284921  0.58630349    -0.03560
C1181       C  0.62690635  0.33750117  0.61035009     0.05050
C1182       C  0.63906611  0.35691367  0.63128025     0.03140
H1183       H  0.60043091  0.34491377  0.56585289     0.08250
H1184       H  0.65074189  0.35321882  0.65398147     0.07080
C1185       C  0.64125551  0.79164436  0.89208680    -0.05800
C1186       C  0.62685266  0.80668232  0.86760503     0.00130
C1187       C  0.61315401  0.79269476  0.84108789    -0.08440
C1188       C  0.61458997  0.76367435  0.83977736    -0.05820
C1189       C  0.62900821  0.74863636  0.86424702     0.00120
C1190       C  0.64268355  0.76262334  0.89078363    -0.08350
C1191       C  0.65914792  0.74692400  0.91704462     0.62030
H1192       H  0.65155227  0.80289852  0.91210769     0.12720
H1193       H  0.60429722  0.75242153  0.81975228     0.12730
C1194       C  0.59666577  0.80839498  0.81484974     0.62260
F1195       F  0.67214330  0.76456689  0.93954936    -0.22910
F1196       F  0.67914691  0.73118195  0.90129315    -0.20240
F1197       F  0.64185661  0.72971538  0.93516498    -0.19910
F1198       F  0.61393772  0.82561275  0.79671488    -0.19960
F1199       F  0.57667481  0.82412855  0.83062982    -0.20290
F1200       F  0.58365694  0.79075293  0.79235565    -0.22960
C1201       C  0.85568622  0.76213541  0.84990194    -0.05800
C1202       C  0.88014245  0.74855134  0.85895104     0.00130
C1203       C  0.90335886  0.76462650  0.86887051    -0.08440
C1204       C  0.90088554  0.79361034  0.86956724    -0.05820
C1205       C  0.87642175  0.80719322  0.86056611     0.00120
C1206       C  0.85321611  0.79112519  0.85059119    -0.08350
C1207       C  0.82571751  0.80383544  0.84089059     0.62030
H1208       H  0.83821113  0.74968162  0.84218568     0.12720
H1209       H  0.91835764  0.80606223  0.87730146     0.12730
C1210       C  0.93087032  0.75193789  0.87855507     0.62260
F1211       F  0.80476378  0.78433406  0.84058924    -0.22910
F1212       F  0.82751022  0.81484889  0.80884361    -0.20240
F1213       F  0.81832797  0.82417854  0.86366991    -0.19910
F1214       F  0.93819127  0.73148039  0.85589530    -0.19960
F1215       F  0.92915120  0.74108744  0.91069080    -0.20290
F1216       F  0.95183724  0.77142581  0.87863061    -0.22960
C1217       C  0.60138383  0.29334385  0.61141613    -0.05800
C1218       C  0.62687468  0.30695634  0.61378189     0.00130
C1219       C  0.65128748  0.29116650  0.61780744    -0.08440
C1220       C  0.64906285  0.26220417  0.61983295    -0.05820
C1221       C  0.62357010  0.24859014  0.61746830     0.00120
C1222       C  0.59915813  0.26438278  0.61343261    -0.08350
C1223       C  0.57073398  0.25118194  0.61195318     0.62030
H1224       H  0.58302082  0.30573412  0.60802318     0.12720
H1225       H  0.66742754  0.24981548  0.62321958     0.12730
C1226       C  0.67970836  0.30437727  0.61924291     0.62260
F1227       F  0.55004335  0.27058790  0.61594737    -0.22910
F1228       F  0.56781586  0.23183475  0.63737269    -0.20240
F1229       F  0.56697781  0.23861639  0.58100522    -0.19910
F1230       F  0.68347070  0.31699918  0.65015560    -0.19960
F1231       F  0.68260865  0.32368434  0.59377472    -0.20290
F1232       F  0.70040366  0.28497118  0.61528515    -0.22960
C1233       C  0.89759639  0.29405366  0.61868730    -0.05800
C1234       C  0.87346853  0.30648772  0.60664309     0.00130
C1235       C  0.85046407  0.28993553  0.59782343    -0.08440
C1236       C  0.85231438  0.26111854  0.60188582    -0.05820
C1237       C  0.87643308  0.24868605  0.61395596     0.00120
C1238       C  0.89944575  0.26523604  0.62275430    -0.08350
C1239       C  0.92548637  0.25256373  0.63718835     0.62030
H1240       H  0.91492531  0.30720253  0.62515048     0.12720
H1241       H  0.83498164  0.24797086  0.59543417     0.12730
C1242       C  0.82442266  0.30260779  0.58339405     0.62260
F1243       F  0.94430405  0.27256351  0.64706679    -0.22910
F1244       F  0.93794103  0.23605304  0.61319438    -0.20240
F1245       F  0.91900952  0.23671889  0.66512102    -0.19910
F1246       F  0.83090273  0.31848967  0.55549361    -0.19960
F1247       F  0.81194620  0.31908165  0.60740814    -0.20290
F1248       F  0.80562323  0.28260695  0.57346793    -0.22960
loop_ 
_geom_bond_atom_site_label_1 
_geom_bond_atom_site_label_2 
_geom_bond_distance 
_geom_bond_site_symmetry_2 
_ccdc_geom_bond_type 
N1            N2   1.322       .  A
N1            C5   1.342       .  A
N1           Cu9   2.067       .  S
N2            C3   1.347       .  A
N2           Cu8   2.076       .  S
C3            C4   1.384       .  A
C3            H6   1.082       .  S
C4            C5   1.381       .  A
C4           C35   1.467       .  S
C5            H7   1.082       .  S
Cu8          N11   2.076       .  S
Cu9          N19   2.067       .  S
Cu10         N12   2.075       .  S
Cu10         N18   2.075       .  S
N11          N12   1.323       .  A
N11          C15   1.345       .  A
N12          C13   1.346       .  A
C13          C14   1.382       .  A
C13          H16   1.082       .  S
C14          C15   1.382       .  A
C14          C99   1.466       .  S
C15          H17   1.082       .  S
N18          N19   1.322       .  A
N18          C22   1.345       .  A
N19          C20   1.344       .  A
C20          C21   1.381       .  A
C20          H23   1.082       .  S
C21          C22   1.382       .  A
C21         C301   1.474       .  S
C22          H24   1.082       .  S
O25          C35   1.279       .  A
O25        Cu657   2.021       .  S
O26         C348   1.277       .  A
O26         Cu33   2.009   1_566  S
O27          C37   1.279       .  A
O27         Cu33   2.022       .  S
O28         C350   1.277       .  A
O28        Cu657   2.011   1_566  S
O29          C38   1.278   1_545  A
O29        Cu658   2.008       .  S
O30          C37   1.276       .  A
O30        Cu346   1.995   1_554  S
O31          C36   1.277   1_545  A
O31         Cu34   2.007       .  S
O32          C35   1.276       .  A
O32        Cu970   1.996   1_554  S
Cu33        O649   2.021   1_455  S
Cu33        O652   2.011   1_444  S
Cu33       Cu346   2.377   1_554  S
Cu34        O653   2.008   1_455  S
Cu34        O342   1.995       .  S
Cu34        O968   1.996   1_455  S
Cu34       Cu345   2.377       .  S
C36         C114   1.466       .  S
C36         O338   1.277       .  A
C37          C52   1.467       .  S
C38          C76   1.467       .  S
C38         O340   1.277       .  A
N39          N40   1.324       .  A
N39          C43   1.347       .  A
N39         Cu47   2.081       .  S
N40          C41   1.344       .  A
N40         Cu46   2.074       .  S
C41          C42   1.381       .  A
C41          H44   1.082       .  S
C42          C43   1.383       .  A
C42          C97   1.467       .  S
C43          H45   1.082       .  S
Cu46         N49   2.073       .  S
Cu47         N57   2.081       .  S
Cu48         N50   2.065       .  S
Cu48         N56   2.065       .  S
N49          N50   1.321       .  A
N49          C53   1.347       .  A
N50          C51   1.342       .  A
C51          C52   1.381       .  A
C51          H54   1.082       .  S
C52          C53   1.384       .  A
C53          H55   1.082       .  S
N56          N57   1.321       .  A
N56          C60   1.343       .  A
N57          C58   1.345       .  A
C58          C59   1.387       .  A
C58          H61   1.082       .  S
C59          C60   1.383       .  A
C59         C285   1.483       .  S
C60          H62   1.079       .  S
N63          N64   1.321       .  A
N63          C67   1.342       .  A
N63         Cu71   2.066       .  S
N64          C65   1.347   1_565  A
N64         Cu70   2.071       .  S
C65          C66   1.383   1_545  A
C65          H68   1.082       .  S
C66          C67   1.381       .  A
C66          C98   1.466   1_565  S
C67          H69   1.082       .  S
Cu70         N73   2.072       .  S
Cu71         N81   2.066       .  S
Cu72         N74   2.082       .  S
Cu72         N80   2.082       .  S
N73          N74   1.323       .  A
N73          C77   1.344       .  A
N74          C75   1.347       .  A
C75          C76   1.384       .  A
C75          H78   1.082       .  S
C76          C77   1.380       .  A
C77          H79   1.082   1_565  S
N80          N81   1.320       .  A
N80          C84   1.345       .  A
N81          C82   1.343       .  A
C82          C83   1.386       .  A
C82          H85   1.077       .  S
C83          C84   1.390       .  A
C83         C269   1.491       .  S
C84          H86   1.082       .  S
O87          C97   1.277       .  A
O87         Cu95   2.010       .  S
O88          C98   1.279       .  A
O88         Cu95   2.021       .  S
O89          C99   1.278       .  A
O89         Cu95   2.011       .  S
O90         C100   1.279       .  A
O90         Cu95   2.023       .  S
O91         C100   1.276   1_565  A
O91         Cu96   1.996   1_565  S
O92          C99   1.277       .  A
O92         Cu96   2.007       .  S
O93          C98   1.276   1_565  A
O93         Cu96   1.994   1_565  S
O94          C97   1.278       .  A
O94         Cu96   2.008       .  S
Cu95        Cu96   2.377       .  S
C100        C104   1.467   1_545  S
N101        N102   1.322       .  A
N101        C105   1.343       .  A
N101       Cu109   2.069       .  S
N102        C103   1.347   1_565  A
N102       Cu108   2.075       .  S
C103        C104   1.384   1_545  A
C103        H106   1.082       .  S
C104        C105   1.381       .  A
C105        H107   1.082       .  S
Cu108       N111   2.075       .  S
Cu109       N119   2.069       .  S
Cu110       N112   2.075       .  S
Cu110       N118   2.075       .  S
N111        N112   1.323       .  A
N111        C115   1.344       .  A
N112        C113   1.346       .  A
C113        C114   1.382       .  A
C113        H116   1.082       .  S
C114        C115   1.381       .  A
C115        H117   1.082   1_565  S
N118        N119   1.322       .  A
N118        C122   1.345       .  A
N119        C120   1.344       .  A
C120        C121   1.380       .  A
C120        H123   1.082       .  S
C121        C122   1.382       .  A
C121        C250   1.472       .  S
C122        H124   1.082       .  S
N125        N126   1.321       .  A
N125        C129   1.342       .  A
N125       Cu133   2.066       .  S
N126        C127   1.347       .  A
N126       Cu132   2.071       .  S
C127        C128   1.384       .  A
C127        H130   1.082       .  S
C128        C129   1.381       .  A
C128        C207   1.467       .  S
C129        H131   1.082       .  S
Cu132       N135   2.072       .  S
Cu133       N143   2.066       .  S
Cu134       N136   2.081       .  S
Cu134       N142   2.081       .  S
N135        N136   1.324       .  A
N135        C139   1.344       .  A
N136        C137   1.347       .  A
C137        C138   1.383       .  A
C137        H140   1.082       .  S
C138        C139   1.380       .  A
C138        C223   1.467       .  S
C139        H141   1.082       .  S
N142        N143   1.320       .  A
N142        C146   1.345       .  A
N143        C144   1.343       .  A
C144        C145   1.386       .  A
C144        H147   1.077       .  S
C145        C146   1.390       .  A
C145        C266   1.491       .  S
C146        H148   1.082       .  S
N149        N150   1.323       .  A
N149        C153   1.346       .  A
N149       Cu157   2.074       .  S
N150        C151   1.345       .  A
N150       Cu156   2.076       .  S
C151        C152   1.381       .  A
C151        H154   1.082       .  S
C152        C153   1.382       .  A
C152        C210   1.466       .  S
C153        H155   1.082       .  S
Cu156       N159   2.076       .  S
Cu157       N167   2.074       .  S
Cu158       N160   2.068       .  S
Cu158       N166   2.068       .  S
N159        N160   1.322       .  A
N159        C163   1.347       .  A
N160        C161   1.343       .  A
C161        C162   1.381       .  A
C161        H164   1.082       .  S
C162        C163   1.384       .  A
C162        C222   1.467       .  S
C163        H165   1.082       .  S
N166        N167   1.322       .  A
N166        C170   1.344       .  A
N167        C168   1.345       .  A
C168        C169   1.382       .  A
C168        H171   1.082       .  S
C169        C170   1.381       .  A
C169        C298   1.474       .  S
C170        H172   1.082       .  S
N173        N174   1.323       .  A
N173        C177   1.346       .  A
N173       Cu181   2.076       .  S
N174        C175   1.345       .  A
N174       Cu180   2.075       .  S
C175        C176   1.381       .  A
C175        H178   1.082       .  S
C176        C177   1.382       .  A
C176        C221   1.466       .  S
C177        H179   1.082       .  S
Cu180       N183   2.074       .  S
Cu181       N191   2.076       .  S
Cu182       N184   2.068       .  S
Cu182       N190   2.068       .  S
N183        N184   1.322       .  A
N183        C187   1.347       .  A
N184        C185   1.343       .  A
C185        C186   1.381       .  A
C185        H188   1.082       .  S
C186        C187   1.383       .  A
C186        C209   1.467       .  S
C187        H189   1.082       .  S
N190        N191   1.323       .  A
N190        C194   1.344       .  A
N191        C192   1.346       .  A
C192        C193   1.382       .  A
C192        H195   1.082       .  S
C193        C194   1.380       .  A
C193        C253   1.472       .  S
C194        H196   1.082       .  S
O197        C207   1.276       .  A
O197       Cu829   1.995       .  S
O198        C208   1.278       .  A
O198       Cu517   2.009   1_554  S
O199        C209   1.276       .  A
O199       Cu205   1.995       .  S
O200        C210   1.277       .  A
O200      Cu1141   2.007   1_554  S
O201        C522   1.277       .  A
O201       Cu830   2.010       .  S
O202        C209   1.279       .  A
O202       Cu206   2.022       .  S
O203        C520   1.277       .  A
O203       Cu206   2.011       .  S
O204        C207   1.279       .  A
O204       Cu830   2.021       .  S
Cu205       O821   1.995   1_455  S
Cu205       O510   2.009       .  S
Cu205      O1136   2.007   1_455  S
Cu205      Cu206   2.377       .  S
Cu206       O825   2.010   1_455  S
Cu206       O828   2.021   1_455  S
C208        C228   1.467       .  S
C208        O515   1.277   1_554  A
C210        O513   1.277   1_554  A
O211        C221   1.277       .  A
O211       Cu219   2.008       .  S
O212        C222   1.276       .  A
O212       Cu219   1.997       .  S
O213        C223   1.278       .  A
O213       Cu219   2.008       .  S
O214        C224   1.276       .  A
O214       Cu219   1.995       .  S
O215        C224   1.279       .  A
O215       Cu220   2.021       .  S
O216        C223   1.277       .  A
O216       Cu220   2.009       .  S
O217        C222   1.279       .  A
O217       Cu220   2.022       .  S
O218        C221   1.277       .  A
O218       Cu220   2.011       .  S
Cu219      Cu220   2.377       .  S
C224        C238   1.466       .  S
N225        N226   1.324       .  A
N225        C229   1.347       .  A
N225       Cu233   2.081       .  S
N226        C227   1.344       .  A
N226       Cu232   2.073       .  S
C227        C228   1.381       .  A
C227        H230   1.082       .  S
C228        C229   1.383       .  A
C229        H231   1.082       .  S
Cu232       N235   2.072       .  S
Cu233       N243   2.081       .  S
Cu234       N236   2.064       .  S
Cu234       N242   2.065       .  S
N235        N236   1.321       .  A
N235        C239   1.347       .  A
N236        C237   1.342       .  A
C237        C238   1.381       .  A
C237        H240   1.082       .  S
C238        C239   1.384       .  A
C239        H241   1.082       .  S
N242        N243   1.321       .  A
N242        C246   1.343       .  A
N243        C244   1.345       .  A
C244        C245   1.387       .  A
C244        H247   1.082       .  S
C245        C246   1.383       .  A
C245        C282   1.483       .  S
C246        H248   1.079       .  S
C249        C250   1.401       .  A
C249        C254   1.406       .  A
C249        H256   1.083       .  S
C250        C251   1.415       .  A
C251        C252   1.406       .  A
C251        C258   1.518       .  S
C252        C253   1.401       .  A
C252        H257   1.083       .  S
C253        C254   1.415       .  A
C254        C255   1.518       .  S
C255        F259   1.385       .  S
C255        F260   1.383       .  S
C255        F261   1.382       .  S
C258        F262   1.382       .  S
C258        F263   1.383       .  S
C258        F264   1.385       .  S
C265        C266   1.404       .  A
C265        C270   1.407       .  A
C265        H272   1.083       .  S
C266        C267   1.422       .  A
C267        C268   1.407       .  A
C267        C274   1.520       .  S
C268        C269   1.404       .  A
C268        H273   1.083       .  S
C269        C270   1.422       .  A
C270        C271   1.520       .  S
C271        F275   1.385       .  S
C271        F276   1.381       .  S
C271        F277   1.383       .  S
C274        F278   1.383       .  S
C274        F279   1.381       .  S
C274        F280   1.385       .  S
C281        C282   1.402       .  A
C281        C286   1.407       .  A
C281        H288   1.083       .  S
C282        C283   1.420       .  A
C283        C284   1.407       .  A
C283        C290   1.519       .  S
C284        C285   1.403       .  A
C284        H289   1.083       .  S
C285        C286   1.420       .  A
C286        C287   1.519       .  S
C287        F291   1.385       .  S
C287        F292   1.383       .  S
C287        F293   1.381       .  S
C290        F294   1.381       .  S
C290        F295   1.383       .  S
C290        F296   1.385       .  S
C297        C298   1.401       .  A
C297        C302   1.406       .  A
C297        H304   1.083       .  S
C298        C299   1.415       .  A
C299        C300   1.406       .  A
C299        C306   1.518       .  S
C300        C301   1.401       .  A
C300        H305   1.083       .  S
C301        C302   1.415       .  A
C302        C303   1.518       .  S
C303        F307   1.384       .  S
C303        F308   1.382       .  S
C303        F309   1.383       .  S
C306        F310   1.383       .  S
C306        F311   1.382       .  S
C306        F312   1.384       .  S
N313        N314   1.322       .  A
N313        C317   1.342       .  A
N313       Cu321   2.067       .  S
N314        C315   1.347       .  A
N314       Cu320   2.076       .  S
C315        C316   1.384       .  A
C315        H318   1.082       .  S
C316        C317   1.381       .  A
C316        C347   1.467       .  S
C317        H319   1.082       .  S
Cu320       N323   2.076       .  S
Cu321       N331   2.067       .  S
Cu322       N324   2.075       .  S
Cu322       N330   2.075       .  S
N323        N324   1.323       .  A
N323        C327   1.345       .  A
N324        C325   1.346       .  A
C325        C326   1.382       .  A
C325        H328   1.082       .  S
C326        C327   1.382       .  A
C326        C411   1.466       .  S
C327        H329   1.082       .  S
N330        N331   1.322       .  A
N330        C334   1.345       .  A
N331        C332   1.344       .  A
C332        C333   1.381       .  A
C332        H335   1.082       .  S
C333        C334   1.382       .  A
C333        C613   1.474       .  S
C334        H336   1.082       .  S
O337        C347   1.279       .  A
O337       Cu969   2.021       .  S
O338       Cu345   2.009   1_565  S
O339        C349   1.279       .  A
O339       Cu345   2.022       .  S
O340       Cu969   2.011   1_565  S
O341        C350   1.278   1_545  A
O341       Cu970   2.008       .  S
O342        C349   1.276       .  A
O343        C348   1.277   1_545  A
O343       Cu346   2.007       .  S
O344        C347   1.276       .  A
O344       Cu658   1.996       .  S
Cu345       O961   2.021   1_455  S
Cu345       O964   2.011   1_445  S
Cu346       O965   2.008   1_455  S
Cu346       O656   1.996   1_456  S
C348        C426   1.466       .  S
C349        C364   1.467       .  S
C350        C388   1.467       .  S
N351        N352   1.324       .  A
N351        C355   1.347       .  A
N351       Cu359   2.081       .  S
N352        C353   1.344       .  A
N352       Cu358   2.074       .  S
C353        C354   1.381       .  A
C353        H356   1.082       .  S
C354        C355   1.383       .  A
C354        C409   1.467       .  S
C355        H357   1.082       .  S
Cu358       N361   2.073       .  S
Cu359       N369   2.081       .  S
Cu360       N362   2.065       .  S
Cu360       N368   2.065       .  S
N361        N362   1.321       .  A
N361        C365   1.347       .  A
N362        C363   1.342       .  A
C363        C364   1.381       .  A
C363        H366   1.082       .  S
C364        C365   1.384       .  A
C365        H367   1.082       .  S
N368        N369   1.321       .  A
N368        C372   1.343       .  A
N369        C370   1.345       .  A
C370        C371   1.387       .  A
C370        H373   1.082       .  S
C371        C372   1.383       .  A
C371        C597   1.483       .  S
C372        H374   1.079       .  S
N375        N376   1.321       .  A
N375        C379   1.342       .  A
N375       Cu383   2.066       .  S
N376        C377   1.347   1_565  A
N376       Cu382   2.071       .  S
C377        C378   1.383   1_545  A
C377        H380   1.082       .  S
C378        C379   1.381       .  A
C378        C410   1.466   1_565  S
C379        H381   1.082       .  S
Cu382       N385   2.072       .  S
Cu383       N393   2.066       .  S
Cu384       N386   2.082       .  S
Cu384       N392   2.082       .  S
N385        N386   1.323       .  A
N385        C389   1.344       .  A
N386        C387   1.347       .  A
C387        C388   1.384       .  A
C387        H390   1.082       .  S
C388        C389   1.380       .  A
C389        H391   1.082   1_565  S
N392        N393   1.320       .  A
N392        C396   1.345       .  A
N393        C394   1.343       .  A
C394        C395   1.386       .  A
C394        H397   1.077       .  S
C395        C396   1.390       .  A
C395        C581   1.491       .  S
C396        H398   1.082       .  S
O399        C409   1.277       .  A
O399       Cu407   2.010       .  S
O400        C410   1.279       .  A
O400       Cu407   2.021       .  S
O401        C411   1.278       .  A
O401       Cu407   2.011       .  S
O402        C412   1.279       .  A
O402       Cu407   2.023       .  S
O403        C412   1.276   1_565  A
O403       Cu408   1.996   1_565  S
O404        C411   1.277       .  A
O404       Cu408   2.007       .  S
O405        C410   1.276   1_565  A
O405       Cu408   1.994   1_565  S
O406        C409   1.278       .  A
O406       Cu408   2.008       .  S
Cu407      Cu408   2.377       .  S
C412        C416   1.467   1_545  S
N413        N414   1.322       .  A
N413        C417   1.343       .  A
N413       Cu421   2.069       .  S
N414        C415   1.347   1_565  A
N414       Cu420   2.075       .  S
C415        C416   1.384   1_545  A
C415        H418   1.082       .  S
C416        C417   1.381       .  A
C417        H419   1.082       .  S
Cu420       N423   2.075       .  S
Cu421       N431   2.069       .  S
Cu422       N424   2.075       .  S
Cu422       N430   2.075       .  S
N423        N424   1.323       .  A
N423        C427   1.344       .  A
N424        C425   1.346       .  A
C425        C426   1.382       .  A
C425        H428   1.082       .  S
C426        C427   1.381       .  A
C427        H429   1.082   1_565  S
N430        N431   1.322       .  A
N430        C434   1.345       .  A
N431        C432   1.344       .  A
C432        C433   1.380       .  A
C432        H435   1.082       .  S
C433        C434   1.382       .  A
C433        C562   1.472       .  S
C434        H436   1.082       .  S
N437        N438   1.321       .  A
N437        C441   1.342       .  A
N437       Cu445   2.066       .  S
N438        C439   1.347       .  A
N438       Cu444   2.071       .  S
C439        C440   1.384       .  A
C439        H442   1.082       .  S
C440        C441   1.381       .  A
C440        C519   1.467       .  S
C441        H443   1.082       .  S
Cu444       N447   2.072       .  S
Cu445       N455   2.066       .  S
Cu446       N448   2.081       .  S
Cu446       N454   2.081       .  S
N447        N448   1.324       .  A
N447        C451   1.344       .  A
N448        C449   1.347       .  A
C449        C450   1.383       .  A
C449        H452   1.082       .  S
C450        C451   1.380       .  A
C450        C535   1.467       .  S
C451        H453   1.082       .  S
N454        N455   1.320       .  A
N454        C458   1.345       .  A
N455        C456   1.343       .  A
C456        C457   1.386       .  A
C456        H459   1.077       .  S
C457        C458   1.390       .  A
C457        C578   1.491       .  S
C458        H460   1.082       .  S
N461        N462   1.323       .  A
N461        C465   1.346       .  A
N461       Cu469   2.074       .  S
N462        C463   1.345       .  A
N462       Cu468   2.076       .  S
C463        C464   1.381       .  A
C463        H466   1.082       .  S
C464        C465   1.382       .  A
C464        C522   1.466       .  S
C465        H467   1.082       .  S
Cu468       N471   2.076       .  S
Cu469       N479   2.074       .  S
Cu470       N472   2.068       .  S
Cu470       N478   2.068       .  S
N471        N472   1.322       .  A
N471        C475   1.347       .  A
N472        C473   1.343       .  A
C473        C474   1.381       .  A
C473        H476   1.082       .  S
C474        C475   1.384       .  A
C474        C534   1.467       .  S
C475        H477   1.082       .  S
N478        N479   1.322       .  A
N478        C482   1.344       .  A
N479        C480   1.345       .  A
C480        C481   1.382       .  A
C480        H483   1.082       .  S
C481        C482   1.381       .  A
C481        C610   1.474       .  S
C482        H484   1.082       .  S
N485        N486   1.323       .  A
N485        C489   1.346       .  A
N485       Cu493   2.076       .  S
N486        C487   1.345       .  A
N486       Cu492   2.075       .  S
C487        C488   1.381       .  A
C487        H490   1.082       .  S
C488        C489   1.382       .  A
C488        C533   1.466       .  S
C489        H491   1.082       .  S
Cu492       N495   2.074       .  S
Cu493       N503   2.076       .  S
Cu494       N496   2.068       .  S
Cu494       N502   2.068       .  S
N495        N496   1.322       .  A
N495        C499   1.347       .  A
N496        C497   1.343       .  A
C497        C498   1.381       .  A
C497        H500   1.082       .  S
C498        C499   1.383       .  A
C498        C521   1.467       .  S
C499        H501   1.082       .  S
N502        N503   1.323       .  A
N502        C506   1.344       .  A
N503        C504   1.346       .  A
C504        C505   1.382       .  A
C504        H507   1.082       .  S
C505        C506   1.380       .  A
C505        C565   1.472       .  S
C506        H508   1.082       .  S
O509        C519   1.276       .  A
O509      Cu1141   1.995       .  S
O510        C520   1.278       .  A
O511        C521   1.276       .  A
O511       Cu517   1.995       .  S
O512        C522   1.277       .  A
O512       Cu829   2.007       .  S
O513      Cu1142   2.010       .  S
O514        C521   1.279       .  A
O514       Cu518   2.022       .  S
O515       Cu518   2.011       .  S
O516        C519   1.279       .  A
O516      Cu1142   2.021       .  S
Cu517      O1133   1.995   1_455  S
Cu517       O824   2.007   1_456  S
Cu517      Cu518   2.377       .  S
Cu518      O1137   2.010   1_455  S
Cu518      O1140   2.021   1_455  S
C520        C540   1.467       .  S
O523        C533   1.277       .  A
O523       Cu531   2.008       .  S
O524        C534   1.276       .  A
O524       Cu531   1.997       .  S
O525        C535   1.278       .  A
O525       Cu531   2.008       .  S
O526        C536   1.276       .  A
O526       Cu531   1.995       .  S
O527        C536   1.279       .  A
O527       Cu532   2.021       .  S
O528        C535   1.277       .  A
O528       Cu532   2.009       .  S
O529        C534   1.279       .  A
O529       Cu532   2.022       .  S
O530        C533   1.277       .  A
O530       Cu532   2.011       .  S
Cu531      Cu532   2.377       .  S
C536        C550   1.466       .  S
N537        N538   1.324       .  A
N537        C541   1.347       .  A
N537       Cu545   2.081       .  S
N538        C539   1.344       .  A
N538       Cu544   2.073       .  S
C539        C540   1.381       .  A
C539        H542   1.082       .  S
C540        C541   1.383       .  A
C541        H543   1.082       .  S
Cu544       N547   2.072       .  S
Cu545       N555   2.081       .  S
Cu546       N548   2.064       .  S
Cu546       N554   2.065       .  S
N547        N548   1.321       .  A
N547        C551   1.347       .  A
N548        C549   1.342       .  A
C549        C550   1.381       .  A
C549        H552   1.082       .  S
C550        C551   1.384       .  A
C551        H553   1.082       .  S
N554        N555   1.321       .  A
N554        C558   1.343       .  A
N555        C556   1.345       .  A
C556        C557   1.387       .  A
C556        H559   1.082       .  S
C557        C558   1.383       .  A
C557        C594   1.483       .  S
C558        H560   1.079       .  S
C561        C562   1.401       .  A
C561        C566   1.406       .  A
C561        H568   1.083       .  S
C562        C563   1.415       .  A
C563        C564   1.406       .  A
C563        C570   1.518       .  S
C564        C565   1.401       .  A
C564        H569   1.083       .  S
C565        C566   1.415       .  A
C566        C567   1.518       .  S
C567        F571   1.385       .  S
C567        F572   1.383       .  S
C567        F573   1.382       .  S
C570        F574   1.382       .  S
C570        F575   1.383       .  S
C570        F576   1.385       .  S
C577        C578   1.404       .  A
C577        C582   1.407       .  A
C577        H584   1.083       .  S
C578        C579   1.422       .  A
C579        C580   1.407       .  A
C579        C586   1.520       .  S
C580        C581   1.404       .  A
C580        H585   1.083       .  S
C581        C582   1.422       .  A
C582        C583   1.520       .  S
C583        F587   1.385       .  S
C583        F588   1.381       .  S
C583        F589   1.383       .  S
C586        F590   1.383       .  S
C586        F591   1.381       .  S
C586        F592   1.385       .  S
C593        C594   1.402       .  A
C593        C598   1.407       .  A
C593        H600   1.083       .  S
C594        C595   1.420       .  A
C595        C596   1.407       .  A
C595        C602   1.519       .  S
C596        C597   1.403       .  A
C596        H601   1.083       .  S
C597        C598   1.420       .  A
C598        C599   1.519       .  S
C599        F603   1.385       .  S
C599        F604   1.383       .  S
C599        F605   1.381       .  S
C602        F606   1.381       .  S
C602        F607   1.383       .  S
C602        F608   1.385       .  S
C609        C610   1.401       .  A
C609        C614   1.406       .  A
C609        H616   1.083       .  S
C610        C611   1.415       .  A
C611        C612   1.406       .  A
C611        C618   1.518       .  S
C612        C613   1.401       .  A
C612        H617   1.083       .  S
C613        C614   1.415       .  A
C614        C615   1.518       .  S
C615        F619   1.384       .  S
C615        F620   1.382       .  S
C615        F621   1.383       .  S
C618        F622   1.383       .  S
C618        F623   1.382       .  S
C618        F624   1.384       .  S
N625        N626   1.322       .  A
N625        C629   1.342       .  A
N625       Cu633   2.067       .  S
N626        C627   1.347       .  A
N626       Cu632   2.076       .  S
C627        C628   1.384       .  A
C627        H630   1.082       .  S
C628        C629   1.381       .  A
C628        C659   1.467       .  S
C629        H631   1.082       .  S
Cu632       N635   2.076       .  S
Cu633       N643   2.067       .  S
Cu634       N636   2.075       .  S
Cu634       N642   2.075       .  S
N635        N636   1.323       .  A
N635        C639   1.345       .  A
N636        C637   1.346       .  A
C637        C638   1.382       .  A
C637        H640   1.082       .  S
C638        C639   1.382       .  A
C638        C723   1.466       .  S
C639        H641   1.082       .  S
N642        N643   1.322       .  A
N642        C646   1.345       .  A
N643        C644   1.344       .  A
C644        C645   1.381       .  A
C644        H647   1.082       .  S
C645        C646   1.382       .  A
C645        C925   1.474       .  S
C646        H648   1.082       .  S
O649        C659   1.279       .  A
O650        C972   1.277       .  A
O650       Cu657   2.009   1_566  S
O651        C661   1.279       .  A
O651       Cu657   2.022       .  S
O652        C974   1.277       .  A
O653        C662   1.278   1_545  A
O654        C661   1.276       .  A
O654       Cu970   1.995   1_554  S
O655        C660   1.277   1_545  A
O655       Cu658   2.007       .  S
O656        C659   1.276       .  A
Cu657      Cu970   2.377   1_554  S
Cu658       O966   1.995       .  S
Cu658      Cu969   2.377       .  S
C660        C738   1.466       .  S
C660        O962   1.277       .  A
C661        C676   1.467       .  S
C662        C700   1.467       .  S
C662        O964   1.277       .  A
N663        N664   1.324       .  A
N663        C667   1.347       .  A
N663       Cu671   2.081       .  S
N664        C665   1.344       .  A
N664       Cu670   2.074       .  S
C665        C666   1.381       .  A
C665        H668   1.082       .  S
C666        C667   1.383       .  A
C666        C721   1.467       .  S
C667        H669   1.082       .  S
Cu670       N673   2.073       .  S
Cu671       N681   2.081       .  S
Cu672       N674   2.065       .  S
Cu672       N680   2.065       .  S
N673        N674   1.321       .  A
N673        C677   1.347       .  A
N674        C675   1.342       .  A
C675        C676   1.381       .  A
C675        H678   1.082       .  S
C676        C677   1.384       .  A
C677        H679   1.082       .  S
N680        N681   1.321       .  A
N680        C684   1.343       .  A
N681        C682   1.345       .  A
C682        C683   1.387       .  A
C682        H685   1.082       .  S
C683        C684   1.383       .  A
C683        C909   1.483       .  S
C684        H686   1.079       .  S
N687        N688   1.321       .  A
N687        C691   1.342       .  A
N687       Cu695   2.066       .  S
N688        C689   1.347   1_565  A
N688       Cu694   2.071       .  S
C689        C690   1.383   1_545  A
C689        H692   1.082       .  S
C690        C691   1.381       .  A
C690        C722   1.466   1_565  S
C691        H693   1.082       .  S
Cu694       N697   2.072       .  S
Cu695       N705   2.066       .  S
Cu696       N698   2.082       .  S
Cu696       N704   2.082       .  S
N697        N698   1.323       .  A
N697        C701   1.344       .  A
N698        C699   1.347       .  A
C699        C700   1.384       .  A
C699        H702   1.082       .  S
C700        C701   1.380       .  A
C701        H703   1.082   1_565  S
N704        N705   1.320       .  A
N704        C708   1.345       .  A
N705        C706   1.343       .  A
C706        C707   1.386       .  A
C706        H709   1.077       .  S
C707        C708   1.390       .  A
C707        C893   1.491       .  S
C708        H710   1.082       .  S
O711        C721   1.277       .  A
O711       Cu719   2.010       .  S
O712        C722   1.279       .  A
O712       Cu719   2.021       .  S
O713        C723   1.278       .  A
O713       Cu719   2.011       .  S
O714        C724   1.279       .  A
O714       Cu719   2.023       .  S
O715        C724   1.276   1_565  A
O715       Cu720   1.996   1_565  S
O716        C723   1.277       .  A
O716       Cu720   2.007       .  S
O717        C722   1.276   1_565  A
O717       Cu720   1.994   1_565  S
O718        C721   1.278       .  A
O718       Cu720   2.008       .  S
Cu719      Cu720   2.377       .  S
C724        C728   1.467   1_545  S
N725        N726   1.322       .  A
N725        C729   1.343       .  A
N725       Cu733   2.069       .  S
N726        C727   1.347   1_565  A
N726       Cu732   2.075       .  S
C727        C728   1.384   1_545  A
C727        H730   1.082       .  S
C728        C729   1.381       .  A
C729        H731   1.082       .  S
Cu732       N735   2.075       .  S
Cu733       N743   2.069       .  S
Cu734       N736   2.075       .  S
Cu734       N742   2.075       .  S
N735        N736   1.323       .  A
N735        C739   1.344       .  A
N736        C737   1.346       .  A
C737        C738   1.382       .  A
C737        H740   1.082       .  S
C738        C739   1.381       .  A
C739        H741   1.082   1_565  S
N742        N743   1.322       .  A
N742        C746   1.345       .  A
N743        C744   1.344       .  A
C744        C745   1.380       .  A
C744        H747   1.082       .  S
C745        C746   1.382       .  A
C745        C874   1.472       .  S
C746        H748   1.082       .  S
N749        N750   1.321       .  A
N749        C753   1.342       .  A
N749       Cu757   2.066       .  S
N750        C751   1.347       .  A
N750       Cu756   2.071       .  S
C751        C752   1.384       .  A
C751        H754   1.082       .  S
C752        C753   1.381       .  A
C752        C831   1.467       .  S
C753        H755   1.082       .  S
Cu756       N759   2.072       .  S
Cu757       N767   2.066       .  S
Cu758       N760   2.081       .  S
Cu758       N766   2.081       .  S
N759        N760   1.324       .  A
N759        C763   1.344       .  A
N760        C761   1.347       .  A
C761        C762   1.383       .  A
C761        H764   1.082       .  S
C762        C763   1.380       .  A
C762        C847   1.467       .  S
C763        H765   1.082       .  S
N766        N767   1.320       .  A
N766        C770   1.345       .  A
N767        C768   1.343       .  A
C768        C769   1.386       .  A
C768        H771   1.077       .  S
C769        C770   1.390       .  A
C769        C890   1.491       .  S
C770        H772   1.082       .  S
N773        N774   1.323       .  A
N773        C777   1.346       .  A
N773       Cu781   2.074       .  S
N774        C775   1.345       .  A
N774       Cu780   2.076       .  S
C775        C776   1.381       .  A
C775        H778   1.082       .  S
C776        C777   1.382       .  A
C776        C834   1.466       .  S
C777        H779   1.082       .  S
Cu780       N783   2.076       .  S
Cu781       N791   2.074       .  S
Cu782       N784   2.068       .  S
Cu782       N790   2.068       .  S
N783        N784   1.322       .  A
N783        C787   1.347       .  A
N784        C785   1.343       .  A
C785        C786   1.381       .  A
C785        H788   1.082       .  S
C786        C787   1.384       .  A
C786        C846   1.467       .  S
C787        H789   1.082       .  S
N790        N791   1.322       .  A
N790        C794   1.344       .  A
N791        C792   1.345       .  A
C792        C793   1.382       .  A
C792        H795   1.082       .  S
C793        C794   1.381       .  A
C793        C922   1.474       .  S
C794        H796   1.082       .  S
N797        N798   1.323       .  A
N797        C801   1.346       .  A
N797       Cu805   2.076       .  S
N798        C799   1.345       .  A
N798       Cu804   2.075       .  S
C799        C800   1.381       .  A
C799        H802   1.082       .  S
C800        C801   1.382       .  A
C800        C845   1.466       .  S
C801        H803   1.082       .  S
Cu804       N807   2.074       .  S
Cu805       N815   2.076       .  S
Cu806       N808   2.068       .  S
Cu806       N814   2.068       .  S
N807        N808   1.322       .  A
N807        C811   1.347       .  A
N808        C809   1.343       .  A
C809        C810   1.381       .  A
C809        H812   1.082       .  S
C810        C811   1.383       .  A
C810        C833   1.467       .  S
C811        H813   1.082       .  S
N814        N815   1.323       .  A
N814        C818   1.344       .  A
N815        C816   1.346       .  A
C816        C817   1.382       .  A
C816        H819   1.082       .  S
C817        C818   1.380       .  A
C817        C877   1.472       .  S
C818        H820   1.082       .  S
O821        C831   1.276       .  A
O822        C832   1.278       .  A
O822      Cu1141   2.009   1_554  S
O823        C833   1.276       .  A
O823       Cu829   1.995       .  S
O824        C834   1.277       .  A
O825       C1146   1.277       .  A
O826        C833   1.279       .  A
O826       Cu830   2.022       .  S
O827       C1144   1.277       .  A
O827       Cu830   2.011       .  S
O828        C831   1.279       .  A
Cu829      O1134   2.009       .  S
Cu829      Cu830   2.377       .  S
C832        C852   1.467       .  S
C832       O1139   1.277   1_554  A
C834       O1137   1.277   1_554  A
O835        C845   1.277       .  A
O835       Cu843   2.008       .  S
O836        C846   1.276       .  A
O836       Cu843   1.997       .  S
O837        C847   1.278       .  A
O837       Cu843   2.008       .  S
O838        C848   1.276       .  A
O838       Cu843   1.995       .  S
O839        C848   1.279       .  A
O839       Cu844   2.021       .  S
O840        C847   1.277       .  A
O840       Cu844   2.009       .  S
O841        C846   1.279       .  A
O841       Cu844   2.022       .  S
O842        C845   1.277       .  A
O842       Cu844   2.011       .  S
Cu843      Cu844   2.377       .  S
C848        C862   1.466       .  S
N849        N850   1.324       .  A
N849        C853   1.347       .  A
N849       Cu857   2.081       .  S
N850        C851   1.344       .  A
N850       Cu856   2.073       .  S
C851        C852   1.381       .  A
C851        H854   1.082       .  S
C852        C853   1.383       .  A
C853        H855   1.082       .  S
Cu856       N859   2.072       .  S
Cu857       N867   2.081       .  S
Cu858       N860   2.064       .  S
Cu858       N866   2.065       .  S
N859        N860   1.321       .  A
N859        C863   1.347       .  A
N860        C861   1.342       .  A
C861        C862   1.381       .  A
C861        H864   1.082       .  S
C862        C863   1.384       .  A
C863        H865   1.082       .  S
N866        N867   1.321       .  A
N866        C870   1.343       .  A
N867        C868   1.345       .  A
C868        C869   1.387       .  A
C868        H871   1.082       .  S
C869        C870   1.383       .  A
C869        C906   1.483       .  S
C870        H872   1.079       .  S
C873        C874   1.401       .  A
C873        C878   1.406       .  A
C873        H880   1.083       .  S
C874        C875   1.415       .  A
C875        C876   1.406       .  A
C875        C882   1.518       .  S
C876        C877   1.401       .  A
C876        H881   1.083       .  S
C877        C878   1.415       .  A
C878        C879   1.518       .  S
C879        F883   1.385       .  S
C879        F884   1.383       .  S
C879        F885   1.382       .  S
C882        F886   1.382       .  S
C882        F887   1.383       .  S
C882        F888   1.385       .  S
C889        C890   1.404       .  A
C889        C894   1.407       .  A
C889        H896   1.083       .  S
C890        C891   1.422       .  A
C891        C892   1.407       .  A
C891        C898   1.520       .  S
C892        C893   1.404       .  A
C892        H897   1.083       .  S
C893        C894   1.422       .  A
C894        C895   1.520       .  S
C895        F899   1.385       .  S
C895        F900   1.381       .  S
C895        F901   1.383       .  S
C898        F902   1.383       .  S
C898        F903   1.381       .  S
C898        F904   1.385       .  S
C905        C906   1.402       .  A
C905        C910   1.407       .  A
C905        H912   1.083       .  S
C906        C907   1.420       .  A
C907        C908   1.407       .  A
C907        C914   1.519       .  S
C908        C909   1.403       .  A
C908        H913   1.083       .  S
C909        C910   1.420       .  A
C910        C911   1.519       .  S
C911        F915   1.385       .  S
C911        F916   1.383       .  S
C911        F917   1.381       .  S
C914        F918   1.381       .  S
C914        F919   1.383       .  S
C914        F920   1.385       .  S
C921        C922   1.401       .  A
C921        C926   1.406       .  A
C921        H928   1.083       .  S
C922        C923   1.415       .  A
C923        C924   1.406       .  A
C923        C930   1.518       .  S
C924        C925   1.401       .  A
C924        H929   1.083       .  S
C925        C926   1.415       .  A
C926        C927   1.518       .  S
C927        F931   1.384       .  S
C927        F932   1.382       .  S
C927        F933   1.383       .  S
C930        F934   1.383       .  S
C930        F935   1.382       .  S
C930        F936   1.384       .  S
N937        N938   1.322       .  A
N937        C941   1.342       .  A
N937       Cu945   2.067       .  S
N938        C939   1.347       .  A
N938       Cu944   2.076       .  S
C939        C940   1.384       .  A
C939        H942   1.082       .  S
C940        C941   1.381       .  A
C940        C971   1.467       .  S
C941        H943   1.082       .  S
Cu944       N947   2.076       .  S
Cu945       N955   2.067       .  S
Cu946       N948   2.075       .  S
Cu946       N954   2.075       .  S
N947        N948   1.323       .  A
N947        C951   1.345       .  A
N948        C949   1.346       .  A
C949        C950   1.382       .  A
C949        H952   1.082       .  S
C950        C951   1.382       .  A
C950       C1035   1.466       .  S
C951        H953   1.082       .  S
N954        N955   1.322       .  A
N954        C958   1.345       .  A
N955        C956   1.344       .  A
C956        C957   1.381       .  A
C956        H959   1.082       .  S
C957        C958   1.382       .  A
C957       C1237   1.474       .  S
C958        H960   1.082       .  S
O961        C971   1.279       .  A
O962       Cu969   2.009   1_565  S
O963        C973   1.279       .  A
O963       Cu969   2.022       .  S
O965        C974   1.278   1_545  A
O966        C973   1.276       .  A
O967        C972   1.277   1_545  A
O967       Cu970   2.007       .  S
O968        C971   1.276       .  A
C972       C1050   1.466       .  S
C973        C988   1.467       .  S
C974       C1012   1.467       .  S
N975        N976   1.324       .  A
N975        C979   1.347       .  A
N975       Cu983   2.081       .  S
N976        C977   1.344       .  A
N976       Cu982   2.074       .  S
C977        C978   1.381       .  A
C977        H980   1.082       .  S
C978        C979   1.383       .  A
C978       C1033   1.467       .  S
C979        H981   1.082       .  S
Cu982       N985   2.073       .  S
Cu983       N993   2.081       .  S
Cu984       N986   2.065       .  S
Cu984       N992   2.065       .  S
N985        N986   1.321       .  A
N985        C989   1.347       .  A
N986        C987   1.342       .  A
C987        C988   1.381       .  A
C987        H990   1.082       .  S
C988        C989   1.384       .  A
C989        H991   1.082       .  S
N992        N993   1.321       .  A
N992        C996   1.343       .  A
N993        C994   1.345       .  A
C994        C995   1.387       .  A
C994        H997   1.082       .  S
C995        C996   1.383       .  A
C995       C1221   1.483       .  S
C996        H998   1.079       .  S
N999       N1000   1.321       .  A
N999       C1003   1.342       .  A
N999      Cu1007   2.066       .  S
N1000      C1001   1.347   1_565  A
N1000     Cu1006   2.071       .  S
C1001      C1002   1.383   1_545  A
C1001      H1004   1.082       .  S
C1002      C1003   1.381       .  A
C1002      C1034   1.466   1_565  S
C1003      H1005   1.082       .  S
Cu1006     N1009   2.072       .  S
Cu1007     N1017   2.066       .  S
Cu1008     N1010   2.082       .  S
Cu1008     N1016   2.082       .  S
N1009      N1010   1.323       .  A
N1009      C1013   1.344       .  A
N1010      C1011   1.347       .  A
C1011      C1012   1.384       .  A
C1011      H1014   1.082       .  S
C1012      C1013   1.380       .  A
C1013      H1015   1.082   1_565  S
N1016      N1017   1.320       .  A
N1016      C1020   1.345       .  A
N1017      C1018   1.343       .  A
C1018      C1019   1.386       .  A
C1018      H1021   1.077       .  S
C1019      C1020   1.390       .  A
C1019      C1205   1.491       .  S
C1020      H1022   1.082       .  S
O1023      C1033   1.277       .  A
O1023     Cu1031   2.010       .  S
O1024      C1034   1.279       .  A
O1024     Cu1031   2.021       .  S
O1025      C1035   1.278       .  A
O1025     Cu1031   2.011       .  S
O1026      C1036   1.279       .  A
O1026     Cu1031   2.023       .  S
O1027      C1036   1.276   1_565  A
O1027     Cu1032   1.996   1_565  S
O1028      C1035   1.277       .  A
O1028     Cu1032   2.007       .  S
O1029      C1034   1.276   1_565  A
O1029     Cu1032   1.994   1_565  S
O1030      C1033   1.278       .  A
O1030     Cu1032   2.008       .  S
Cu1031    Cu1032   2.377       .  S
C1036      C1040   1.467   1_545  S
N1037      N1038   1.322       .  A
N1037      C1041   1.343       .  A
N1037     Cu1045   2.069       .  S
N1038      C1039   1.347   1_565  A
N1038     Cu1044   2.075       .  S
C1039      C1040   1.384   1_545  A
C1039      H1042   1.082       .  S
C1040      C1041   1.381       .  A
C1041      H1043   1.082       .  S
Cu1044     N1047   2.075       .  S
Cu1045     N1055   2.069       .  S
Cu1046     N1048   2.075       .  S
Cu1046     N1054   2.075       .  S
N1047      N1048   1.323       .  A
N1047      C1051   1.344       .  A
N1048      C1049   1.346       .  A
C1049      C1050   1.382       .  A
C1049      H1052   1.082       .  S
C1050      C1051   1.381       .  A
C1051      H1053   1.082   1_565  S
N1054      N1055   1.322       .  A
N1054      C1058   1.345       .  A
N1055      C1056   1.344       .  A
C1056      C1057   1.380       .  A
C1056      H1059   1.082       .  S
C1057      C1058   1.382       .  A
C1057      C1186   1.472       .  S
C1058      H1060   1.082       .  S
N1061      N1062   1.321       .  A
N1061      C1065   1.342       .  A
N1061     Cu1069   2.066       .  S
N1062      C1063   1.347       .  A
N1062     Cu1068   2.071       .  S
C1063      C1064   1.384       .  A
C1063      H1066   1.082       .  S
C1064      C1065   1.381       .  A
C1064      C1143   1.467       .  S
C1065      H1067   1.082       .  S
Cu1068     N1071   2.072       .  S
Cu1069     N1079   2.066       .  S
Cu1070     N1072   2.081       .  S
Cu1070     N1078   2.081       .  S
N1071      N1072   1.324       .  A
N1071      C1075   1.344       .  A
N1072      C1073   1.347       .  A
C1073      C1074   1.383       .  A
C1073      H1076   1.082       .  S
C1074      C1075   1.380       .  A
C1074      C1159   1.467       .  S
C1075      H1077   1.082       .  S
N1078      N1079   1.320       .  A
N1078      C1082   1.345       .  A
N1079      C1080   1.343       .  A
C1080      C1081   1.386       .  A
C1080      H1083   1.077       .  S
C1081      C1082   1.390       .  A
C1081      C1202   1.491       .  S
C1082      H1084   1.082       .  S
N1085      N1086   1.323       .  A
N1085      C1089   1.346       .  A
N1085     Cu1093   2.074       .  S
N1086      C1087   1.345       .  A
N1086     Cu1092   2.076       .  S
C1087      C1088   1.381       .  A
C1087      H1090   1.082       .  S
C1088      C1089   1.382       .  A
C1088      C1146   1.466       .  S
C1089      H1091   1.082       .  S
Cu1092     N1095   2.076       .  S
Cu1093     N1103   2.074       .  S
Cu1094     N1096   2.068       .  S
Cu1094     N1102   2.068       .  S
N1095      N1096   1.322       .  A
N1095      C1099   1.347       .  A
N1096      C1097   1.343       .  A
C1097      C1098   1.381       .  A
C1097      H1100   1.082       .  S
C1098      C1099   1.384       .  A
C1098      C1158   1.467       .  S
C1099      H1101   1.082       .  S
N1102      N1103   1.322       .  A
N1102      C1106   1.344       .  A
N1103      C1104   1.345       .  A
C1104      C1105   1.382       .  A
C1104      H1107   1.082       .  S
C1105      C1106   1.381       .  A
C1105      C1234   1.474       .  S
C1106      H1108   1.082       .  S
N1109      N1110   1.323       .  A
N1109      C1113   1.346       .  A
N1109     Cu1117   2.076       .  S
N1110      C1111   1.345       .  A
N1110     Cu1116   2.075       .  S
C1111      C1112   1.381       .  A
C1111      H1114   1.082       .  S
C1112      C1113   1.382       .  A
C1112      C1157   1.466       .  S
C1113      H1115   1.082       .  S
Cu1116     N1119   2.074       .  S
Cu1117     N1127   2.076       .  S
Cu1118     N1120   2.068       .  S
Cu1118     N1126   2.068       .  S
N1119      N1120   1.322       .  A
N1119      C1123   1.347       .  A
N1120      C1121   1.343       .  A
C1121      C1122   1.381       .  A
C1121      H1124   1.082       .  S
C1122      C1123   1.383       .  A
C1122      C1145   1.467       .  S
C1123      H1125   1.082       .  S
N1126      N1127   1.323       .  A
N1126      C1130   1.344       .  A
N1127      C1128   1.346       .  A
C1128      C1129   1.382       .  A
C1128      H1131   1.082       .  S
C1129      C1130   1.380       .  A
C1129      C1189   1.472       .  S
C1130      H1132   1.082       .  S
O1133      C1143   1.276       .  A
O1134      C1144   1.278       .  A
O1135      C1145   1.276       .  A
O1135     Cu1141   1.995       .  S
O1136      C1146   1.277       .  A
O1138      C1145   1.279       .  A
O1138     Cu1142   2.022       .  S
O1139     Cu1142   2.011       .  S
O1140      C1143   1.279       .  A
Cu1141    Cu1142   2.377       .  S
C1144      C1164   1.467       .  S
O1147      C1157   1.277       .  A
O1147     Cu1155   2.008       .  S
O1148      C1158   1.276       .  A
O1148     Cu1155   1.997       .  S
O1149      C1159   1.278       .  A
O1149     Cu1155   2.008       .  S
O1150      C1160   1.276       .  A
O1150     Cu1155   1.995       .  S
O1151      C1160   1.279       .  A
O1151     Cu1156   2.021       .  S
O1152      C1159   1.277       .  A
O1152     Cu1156   2.009       .  S
O1153      C1158   1.279       .  A
O1153     Cu1156   2.022       .  S
O1154      C1157   1.277       .  A
O1154     Cu1156   2.011       .  S
Cu1155    Cu1156   2.377       .  S
C1160      C1174   1.466       .  S
N1161      N1162   1.324       .  A
N1161      C1165   1.347       .  A
N1161     Cu1169   2.081       .  S
N1162      C1163   1.344       .  A
N1162     Cu1168   2.073       .  S
C1163      C1164   1.381       .  A
C1163      H1166   1.082       .  S
C1164      C1165   1.383       .  A
C1165      H1167   1.082       .  S
Cu1168     N1171   2.072       .  S
Cu1169     N1179   2.081       .  S
Cu1170     N1172   2.064       .  S
Cu1170     N1178   2.065       .  S
N1171      N1172   1.321       .  A
N1171      C1175   1.347       .  A
N1172      C1173   1.342       .  A
C1173      C1174   1.381       .  A
C1173      H1176   1.082       .  S
C1174      C1175   1.384       .  A
C1175      H1177   1.082       .  S
N1178      N1179   1.321       .  A
N1178      C1182   1.343       .  A
N1179      C1180   1.345       .  A
C1180      C1181   1.387       .  A
C1180      H1183   1.082       .  S
C1181      C1182   1.383       .  A
C1181      C1218   1.483       .  S
C1182      H1184   1.079       .  S
C1185      C1186   1.401       .  A
C1185      C1190   1.406       .  A
C1185      H1192   1.083       .  S
C1186      C1187   1.415       .  A
C1187      C1188   1.406       .  A
C1187      C1194   1.518       .  S
C1188      C1189   1.401       .  A
C1188      H1193   1.083       .  S
C1189      C1190   1.415       .  A
C1190      C1191   1.518       .  S
C1191      F1195   1.385       .  S
C1191      F1196   1.383       .  S
C1191      F1197   1.382       .  S
C1194      F1198   1.382       .  S
C1194      F1199   1.383       .  S
C1194      F1200   1.385       .  S
C1201      C1202   1.404       .  A
C1201      C1206   1.407       .  A
C1201      H1208   1.083       .  S
C1202      C1203   1.422       .  A
C1203      C1204   1.407       .  A
C1203      C1210   1.520       .  S
C1204      C1205   1.404       .  A
C1204      H1209   1.083       .  S
C1205      C1206   1.422       .  A
C1206      C1207   1.520       .  S
C1207      F1211   1.385       .  S
C1207      F1212   1.381       .  S
C1207      F1213   1.383       .  S
C1210      F1214   1.383       .  S
C1210      F1215   1.381       .  S
C1210      F1216   1.385       .  S
C1217      C1218   1.402       .  A
C1217      C1222   1.407       .  A
C1217      H1224   1.083       .  S
C1218      C1219   1.420       .  A
C1219      C1220   1.407       .  A
C1219      C1226   1.519       .  S
C1220      C1221   1.403       .  A
C1220      H1225   1.083       .  S
C1221      C1222   1.420       .  A
C1222      C1223   1.519       .  S
C1223      F1227   1.385       .  S
C1223      F1228   1.383       .  S
C1223      F1229   1.381       .  S
C1226      F1230   1.381       .  S
C1226      F1231   1.383       .  S
C1226      F1232   1.385       .  S
C1233      C1234   1.401       .  A
C1233      C1238   1.406       .  A
C1233      H1240   1.083       .  S
C1234      C1235   1.415       .  A
C1235      C1236   1.406       .  A
C1235      C1242   1.518       .  S
C1236      C1237   1.401       .  A
C1236      H1241   1.083       .  S
C1237      C1238   1.415       .  A
C1238      C1239   1.518       .  S
C1239      F1243   1.384       .  S
C1239      F1244   1.382       .  S
C1239      F1245   1.383       .  S
C1242      F1246   1.383       .  S
C1242      F1247   1.382       .  S
C1242      F1248   1.384       .  S
