geometry optimzed in LAMMPS
_audit_creation_date              2020-11-30 
_audit_creation_method            'lammps2cif' 
_symmetry_space_group_name_H-M    'P1' 
_symmetry_Int_Tables_number       1 
_symmetry_cell_setting            triclinic 
loop_ 
_symmetry_equiv_pos_as_xyz 
  x,y,z 
_cell_length_a                    23.65945497 
_cell_length_b                    23.467601679836765 
_cell_length_c                    22.595926831120025 
_cell_angle_alpha                 90.46836806639863 
_cell_angle_beta                  89.3324562488091 
_cell_angle_gamma                 89.63053456417575 
loop_ 
_atom_site_label 
_atom_site_type_symbol 
_atom_site_fract_x 
_atom_site_fract_y 
_atom_site_fract_z 
_atom_site_charge 
C1          C  0.17454006  0.18034814  0.16701212     0.44900
H2          H  0.19781515  0.20649221  0.19972823    -0.04200
C3          C  0.12095385  0.11853260  0.09118343     0.44900
H4          H  0.10098829  0.09357380  0.05571248    -0.04200
C5          C  0.14864324  0.12419450  0.19464204    -0.17800
C6          C  0.12345869  0.21361374  0.13860828    -0.17600
C7          C  0.21361074  0.15857719  0.11414224    -0.18000
C8          C  0.11690116  0.09219933  0.15406899    -0.18000
C9          C  0.09659827  0.18007156  0.09727993    -0.17500
C10         C  0.18477602  0.12318553  0.07580178    -0.17800
C11         C  0.84298664  0.67633202  0.33958346     0.44900
H12         H  0.81552269  0.70089789  0.30939385    -0.04200
C13         C  0.90786440  0.61959251  0.40992123     0.44900
H14         H  0.93610385  0.59503336  0.43924722    -0.04200
C15         C  0.86680427  0.62010445  0.30993365    -0.17800
C16         C  0.89621145  0.71085676  0.36011586    -0.17600
C17         C  0.81190994  0.65740013  0.39828866    -0.18000
C18         C  0.90288102  0.59130010  0.34760312    -0.18000
C19         C  0.92875702  0.68173255  0.40050700    -0.17500
C20         C  0.84651885  0.62397844  0.43372788    -0.17800
C21         C  0.94759940  0.28506990  0.92206405    -0.03100
C22         C  0.72694581  0.42676582  0.54308180    -0.03100
C23         C  0.58050190  0.06621203  0.78509803    -0.03100
O24         O  0.92049923  0.16119139  0.69709537    -0.85900
O25         O  0.85071866  0.06637073  0.69479998    -0.83000
C26         C  0.80485685  0.08873600  0.67679522     0.97500
O27         O  0.80675591  0.11768707  0.63167019    -0.83000
O28         O  0.82810533  0.16465116  0.52874778    -0.85700
C29         C  0.84570415  0.21281299  0.54644586     1.02100
O30         O  0.89400045  0.21878937  0.56679667    -0.78400
O31         O  0.98267386  0.19753299  0.63582015    -0.78600
C32         C  0.95820035  0.19677542  0.68623962     1.02000
O33         O  0.01666230  0.09422617  0.64550264    -0.85900
O34         O  0.94301894  0.01101732  0.63473066    -0.83000
C35         C  0.90617390  0.98349022  0.60830947     0.97500
O36         O  0.85906559  0.00640618  0.59392132    -0.83000
O37         O  0.88577329  0.06029577  0.49852460    -0.85600
C38         C  0.91737804  0.08607794  0.46444478     1.02000
O39         O  0.93174137  0.13697212  0.47620913    -0.78500
O40         O  0.01049883  0.10860100  0.55024356    -0.78600
C41         C  0.03814780  0.09246861  0.59331314     1.02000
Cr42       Cr  0.93137991  0.08568696  0.66489643     1.93700
Cr43       Cr  0.84785247  0.08865448  0.56519791     1.93200
Cr44       Cr  0.95203931  0.16281685  0.55941061     1.39100
O45         O  0.91074257  0.11165008  0.59576492    -1.23700
C46         C  0.67298855  0.34311648  0.83153233     0.44900
H47         H  0.69860821  0.31515058  0.80206518    -0.04200
C48         C  0.61143118  0.40922077  0.89733738     0.44900
H49         H  0.58528745  0.43467612  0.92857500    -0.04200
C50         C  0.61737624  0.31405017  0.85259031    -0.17800
C51         C  0.70484998  0.36097842  0.88961459    -0.17600
C52         C  0.65428958  0.39954451  0.79898076    -0.18000
C53         C  0.58767890  0.34744414  0.89343562    -0.18000
C54         C  0.67386930  0.40319292  0.91914163    -0.17500
C55         C  0.61552021  0.43224369  0.83201123    -0.17800
C56         C  0.29721466  0.92034931  0.96656413    -0.03100
C57         C  0.43121957  0.58476031  0.75439030    -0.03100
C58         C  0.06337319  0.79896943  0.58993170    -0.03100
O59         O  0.14182429  0.70906300  0.93726163    -0.85900
O60         O  0.06029581  0.68699232  0.85805127    -0.83000
C61         C  0.08647605  0.66989709  0.81180719     0.97500
O62         O  0.11706586  0.62626768  0.81342566    -0.83000
O63         O  0.17595165  0.53630051  0.85734639    -0.85700
C64         C  0.22044078  0.55682671  0.88030507     1.02100
O65         O  0.21948156  0.58212008  0.92910980    -0.78400
O66         O  0.18155971  0.66016865  0.00823805    -0.78600
C67         C  0.17727895  0.70531212  0.97736106     1.02000
O68         O  0.07302171  0.66286160  0.03436072    -0.85900
O69         O  0.00306550  0.63021915  0.95100659    -0.83000
C70         C  0.98158245  0.60288959  0.90960251     0.97500
O71         O  0.01087594  0.58559819  0.86531698    -0.83000
O72         O  0.06924226  0.50280942  0.91383244    -0.85600
C73         C  0.09894448  0.47425002  0.94776317     1.02000
O74         O  0.14363514  0.49488830  0.96956583    -0.78500
O75         O  0.09813816  0.57359987  0.04116414    -0.78600
C76         C  0.07179597  0.61562627  0.06138327     1.02000
Cr77       Cr  0.07257669  0.66861055  0.94419997     1.93700
Cr78       Cr  0.09484200  0.56502811  0.86658430     1.93200
Cr79       Cr  0.15760984  0.57951389  0.98379164     1.39100
O80         O  0.10914638  0.60452590  0.93075419    -1.23700
C81         C  0.45980148  0.23447126  0.09603336    -0.03100
C82         C  0.23349658  0.08747588  0.44033626    -0.03100
C83         C  0.06927092  0.45180232  0.22533228    -0.03100
O84         O  0.36432304  0.31117801  0.44962700    -0.85900
O85         O  0.45520391  0.33121181  0.38139791    -0.83000
C86         C  0.43430594  0.33727251  0.32999323     0.97500
O87         O  0.39805098  0.37487986  0.32095384    -0.83000
O88         O  0.33368062  0.46950358  0.32794669    -0.85700
C89         C  0.28646644  0.44951098  0.34498761     1.02100
O90         O  0.27953188  0.43541146  0.39733804    -0.78400
O91         O  0.29920870  0.36823820  0.48915088    -0.78600
C92         C  0.31622738  0.31872464  0.47133966     1.02000
O93         O  0.39959227  0.38004962  0.54735935    -0.85900
O94         O  0.48584754  0.41325466  0.47189258    -0.83000
C95         C  0.51509568  0.42563771  0.42753518     0.97500
O96         O  0.49362718  0.43030836  0.37648856    -0.83000
O97         O  0.42791956  0.51990413  0.39424581    -0.85600
C98         C  0.39784429  0.54837404  0.42932297     1.02000
O99         O  0.34870954  0.53091814  0.44467100    -0.78500
O100        O  0.37068203  0.46521850  0.53041627    -0.78600
C101        C  0.38351534  0.42858463  0.56663001     1.02000
Cr102      Cr  0.42413602  0.36284025  0.46051197     1.93700
Cr103      Cr  0.41105986  0.44706058  0.35906978     1.93200
Cr104      Cr  0.32767698  0.44806442  0.46304084     1.39100
O105        O  0.38654624  0.41891854  0.42683676    -1.23700
C106        C  0.34162745  0.84218496  0.67264248     0.44900
H107        H  0.31599864  0.81415755  0.70165092    -0.04200
C108        C  0.40215004  0.90693543  0.60584218     0.44900
H109        H  0.42835897  0.93459757  0.57752637    -0.04200
C110        C  0.36528958  0.89493030  0.70736291    -0.17800
C111        C  0.39446043  0.81050312  0.64467995    -0.17600
C112        C  0.30726188  0.86718025  0.61930121    -0.18000
C113        C  0.40241713  0.92697908  0.67233649    -0.18000
C114        C  0.42354474  0.84377482  0.60471675    -0.17500
C115        C  0.33905672  0.90562344  0.58593894    -0.17800
C116        C  0.94844788  0.94342981  0.26022336    -0.06300
C117        C  0.57154245  0.72023556  0.44325890    -0.03100
C118        C  0.79341031  0.58755432  0.05751056    -0.03100
O119        O  0.62494954  0.80481127  0.03940294    -0.85900
O120        O  0.59069628  0.79935425  0.15624697    -0.83000
C121        C  0.58344776  0.81918655  0.20817577     0.97500
O122        O  0.56929460  0.87046377  0.21653669    -0.83000
O123        O  0.67502080  0.92042762  0.19969916    -0.85700
C124        C  0.71763836  0.93631326  0.16913016     1.02100
O125        O  0.71097641  0.95648320  0.11845629    -0.78400
O126        O  0.70008400  0.85170742  0.06613159    -0.78600
C127        C  0.67578940  0.80533736  0.05446166     1.02000
O128        O  0.53864673  0.88592336  0.01355413    -0.85900
O129        O  0.49885944  0.86919517  0.13079616    -0.83000
C130        C  0.48159732  0.91964752  0.13305856     0.97500
O131        O  0.51585789  0.95862619  0.14764769    -0.83000
O132        O  0.61997021  0.01330347  0.14638379    -0.85600
C133        C  0.60776060  0.03159731  0.09632705     1.02000
O134        O  0.62076087  0.00162452  0.05092696    -0.78500
O135        O  0.62577859  0.89707584  0.98393313    -0.78600
C136        C  0.57407860  0.90048252  0.97373957     1.02000
Cr137      Cr  0.56552388  0.84344037  0.08571246     1.93700
Cr138      Cr  0.59542749  0.93829434  0.17375002     1.93200
Cr139      Cr  0.66109713  0.92585706  0.05742093     1.39100
O140        O  0.60781757  0.90208017  0.10612688    -1.23700
C141        C  0.75373238  0.64086605  0.05784137    -0.06700
C142        C  0.74759470  0.67388124  0.11049024    -0.17800
C143        C  0.72579742  0.72887140  0.11062869     0.10500
C144        C  0.70460012  0.75093394  0.05761553    -0.06600
C145        C  0.70114416  0.71600228  0.00782629    -0.17900
C146        C  0.72491294  0.66161451  0.00649967     0.10500
S147        S  0.72673500  0.76624630  0.18102638    -0.32800
S148        S  0.72170885  0.62611956  0.93540190    -0.32800
H149        H  0.67176682  0.65241366  0.91569870     0.28500
H150        H  0.69775294  0.81557620  0.16554667     0.28500
H151        H  0.76141191  0.65868957  0.15282126     0.19100
H152        H  0.68167225  0.73282033  0.96835847     0.19100
C153        C  0.59039134  0.78515026  0.26171111    -0.06700
C154        C  0.61985217  0.81062036  0.30836600    -0.17800
C155        C  0.61602036  0.79000430  0.36615791     0.10500
C156        C  0.57907702  0.74393997  0.37884242    -0.06600
C157        C  0.55775333  0.71340217  0.32912689    -0.17900
C158        C  0.56154599  0.73423283  0.27161483     0.10500
S159        S  0.65875029  0.82347400  0.42233355    -0.32800
S160        S  0.52600378  0.69568515  0.21385135    -0.32800
H161        H  0.50064342  0.74411424  0.18898109     0.28500
H162        H  0.68473832  0.86442179  0.38619029     0.28500
H163        H  0.64448617  0.84840936  0.29952259     0.19100
H164        H  0.53603512  0.67341496  0.33471858     0.19100
C165        C  0.88896653  0.95604844  0.23124328    -0.06700
C166        C  0.87647814  0.92004440  0.18287783    -0.17800
C167        C  0.82185687  0.91199130  0.16218085     0.10500
C168        C  0.77547723  0.93742962  0.19234634    -0.06600
C169        C  0.78590172  0.97471216  0.23848439    -0.17900
C170        C  0.84075854  0.98576744  0.25786455     0.10500
S171        S  0.81374778  0.86639071  0.09860900    -0.32800
S172        S  0.84106118  0.03774670  0.31672184    -0.32800
H173        H  0.79125610  0.01957222  0.34541476     0.28500
H174        H  0.86993000  0.86908596  0.07771632     0.28500
H175        H  0.91010679  0.89480391  0.16299103     0.19100
H176        H  0.75023214  0.99743870  0.25823596     0.19100
C177        C  0.47100698  0.82187334  0.56355746    -0.06700
C178        C  0.51525167  0.78747999  0.58539506    -0.17800
C179        C  0.56222431  0.77183961  0.54929071     0.10500
C180        C  0.55667366  0.77212056  0.48706421    -0.06600
C181        C  0.51932676  0.81488829  0.46710751    -0.17900
C182        C  0.47596892  0.83836265  0.50334216     0.10500
S183        S  0.62616297  0.80412703  0.57605550    -0.32800
S184        S  0.42452837  0.88386442  0.46864472    -0.32800
H185        H  0.45128462  0.88883449  0.41305282     0.28500
H186        H  0.61603011  0.79229414  0.63626217     0.28500
H187        H  0.51894256  0.78286649  0.63270962     0.19100
H188        H  0.52052052  0.82660872  0.42116010     0.19100
C189        C  0.42515035  0.60090525  0.45160169    -0.06700
C190        C  0.42088820  0.64997171  0.41799726    -0.17800
C191        C  0.46317791  0.69198891  0.41846018     0.10500
C192        C  0.51700970  0.68100693  0.44695041    -0.06600
C193        C  0.51771777  0.63355635  0.48476967    -0.17900
C194        C  0.47183689  0.59577934  0.48949868     0.10500
S195        S  0.44522690  0.75499398  0.37672158    -0.32800
S196        S  0.47329394  0.54031156  0.54408669    -0.32800
H197        H  0.51761222  0.56317561  0.57752624     0.28500
H198        H  0.38613672  0.75082101  0.38308098     0.28500
H199        H  0.38520462  0.65415385  0.38868073     0.19100
H200        H  0.55453142  0.62488958  0.51044238     0.19100
C201        C  0.23672386  0.44289028  0.30630965    -0.06700
C202        C  0.23300556  0.47270949  0.25326669    -0.17800
C203        C  0.18277319  0.47395897  0.22050403     0.10500
C204        C  0.13231578  0.44826618  0.24544740    -0.06600
C205        C  0.14074583  0.41074059  0.29256523    -0.17900
C206        C  0.19078531  0.40778724  0.32332684     0.10500
S207        S  0.19328020  0.50656279  0.14830318    -0.32800
S208        S  0.19070132  0.36158968  0.38713646    -0.32800
H209        H  0.14830680  0.32413982  0.36792378     0.28500
H210        H  0.14215069  0.49974149  0.11964579     0.28500
H211        H  0.26961518  0.49580913  0.23736837     0.19100
H212        H  0.10586506  0.38647673  0.30914708     0.19100
C213        C  0.27329137  0.03519615  0.46021866    -0.06700
C214        C  0.25395082  0.97798532  0.45887058    -0.17800
C215        C  0.27780599  0.93381284  0.49336198     0.10500
C216        C  0.31766950  0.94695788  0.53796462    -0.06600
C217        C  0.34278411  0.00131571  0.53287582    -0.17900
C218        C  0.32607844  0.04136064  0.48952086     0.10500
S219        S  0.26133242  0.86184975  0.47121002    -0.32800
S220        S  0.37970336  0.08932610  0.46174579    -0.32800
H221        H  0.42381532  0.07122005  0.49848326     0.28500
H222        H  0.30893876  0.83615292  0.49667431     0.28500
H223        H  0.22321612  0.96581325  0.42688713     0.19100
H224        H  0.37791884  0.01210345  0.56082020     0.19100
C225        C  0.26432186  0.14756303  0.44655476    -0.06700
C226        C  0.28376684  0.16693942  0.50259444    -0.17800
C227        C  0.29155487  0.22517152  0.51538697     0.10500
C228        C  0.28263204  0.26634850  0.47129085    -0.06600
C229        C  0.27061007  0.24685167  0.41421861    -0.17900
C230        C  0.26739035  0.18891588  0.40032455     0.10500
S231        S  0.31478992  0.24444999  0.58850242    -0.32800
S232        S  0.28489738  0.17156240  0.32408988    -0.32800
H233        H  0.25899195  0.21975041  0.29913199     0.28500
H234        H  0.29574103  0.30128877  0.58662308     0.28500
H235        H  0.28676987  0.13727954  0.53889310     0.19100
H236        H  0.27451017  0.27665851  0.37803065     0.19100
C237        C  0.49684292  0.17909372  0.09995978    -0.06700
C238        C  0.54349783  0.17473399  0.13933296    -0.17800
C239        C  0.58340421  0.13053591  0.13427869     0.10500
C240        C  0.57416420  0.08514354  0.09429210    -0.06600
C241        C  0.52500395  0.08700143  0.06070887    -0.17900
C242        C  0.49226399  0.13582183  0.05669916     0.10500
S243        S  0.64559165  0.13527296  0.17948743    -0.32800
S244        S  0.44873249  0.14218750  0.99245165    -0.32800
H245        H  0.48072114  0.18534135  0.96640920     0.28500
H246        H  0.68180713  0.10745494  0.13855430     0.28500
H247        H  0.55312190  0.20872948  0.17005453     0.19100
H248        H  0.51008074  0.05080358  0.03737292     0.19100
C249        C  0.46321958  0.26311706  0.15971310    -0.06700
C250        C  0.44668353  0.22952674  0.20957969    -0.17800
C251        C  0.44391594  0.25053455  0.26744553     0.10500
C252        C  0.45571654  0.30744740  0.27738947    -0.06600
C253        C  0.47877647  0.33997227  0.23149452    -0.17900
C254        C  0.48725828  0.31719278  0.17455178     0.10500
S255        S  0.42540671  0.20487410  0.32855645    -0.32800
S256        S  0.53899230  0.35485209  0.13121272    -0.32800
H257        H  0.57536935  0.30731520  0.12742762     0.28500
H258        H  0.41674421  0.15486544  0.29521273     0.28500
H259        H  0.43988567  0.18489456  0.20530240     0.19100
H260        H  0.49207590  0.38322428  0.24089650     0.19100
C261        C  0.84646705  0.59860329  0.01706219    -0.06700
C262        C  0.88310395  0.55118281  0.00918491    -0.17800
C263        C  0.91450703  0.54466242  0.95710251     0.10500
C264        C  0.92243685  0.59069197  0.91935158    -0.06600
C265        C  0.88963640  0.63989666  0.92863884    -0.17900
C266        C  0.85592527  0.64661497  0.97951403     0.10500
S267        S  0.94197913  0.47581582  0.93832691    -0.32800
S268        S  0.84071422  0.72025830  0.99840224    -0.32800
H269        H  0.84358665  0.71464596  0.05983912     0.28500
H270        H  0.95311971  0.48805939  0.87847673     0.28500
H271        H  0.87776388  0.51410519  0.03683247     0.19100
H272        H  0.89946584  0.67737951  0.90273468     0.19100
C273        C  0.04229234  0.60513074  0.11724082    -0.06700
C274        C  0.00405499  0.56010035  0.11303540    -0.17800
C275        C  0.01184143  0.50978297  0.14532481     0.10500
C276        C  0.05796138  0.50472963  0.18503120    -0.06600
C277        C  0.08368458  0.55764022  0.20038633    -0.17900
C278        C  0.07593682  0.60716487  0.16742661     0.10500
S279        S  0.96091375  0.45513972  0.13379767    -0.32800
S280        S  0.11731275  0.66908442  0.18457804    -0.32800
H281        H  0.08690081  0.70591263  0.14756166     0.28500
H282        H  0.91489349  0.49295613  0.12957886     0.28500
H283        H  0.97452477  0.55998646  0.07693542     0.19100
H284        H  0.11313820  0.56039584  0.23612857     0.19100
C285        C  0.06478068  0.76528473  0.65023678    -0.06700
C286        C  0.06797671  0.70490507  0.64896794    -0.17800
C287        C  0.07438238  0.67266567  0.70035271     0.10500
C288        C  0.07948734  0.70035933  0.75563441    -0.06600
C289        C  0.07740153  0.75928474  0.75815643    -0.17900
C290        C  0.07132990  0.79205627  0.70744827     0.10500
S291        S  0.07382551  0.59619684  0.69226422    -0.32800
S292        S  0.06819991  0.86740519  0.72224949    -0.32800
H293        H  0.10438616  0.86773497  0.77126466     0.28500
H294        H  0.03994998  0.58705522  0.74282591     0.28500
H295        H  0.06670158  0.68164678  0.60754520     0.19100
H296        H  0.08069426  0.78013436  0.80096709     0.19100
C297        C  0.12661965  0.82284273  0.58665582    -0.06700
C298        C  0.17024591  0.78138363  0.58764408    -0.17800
C299        C  0.22693453  0.79390567  0.60168188     0.10500
C300        C  0.24551530  0.85093184  0.60780837    -0.06600
C301        C  0.20379986  0.89323006  0.60363733    -0.17900
C302        C  0.14549740  0.88042958  0.59826134     0.10500
S303        S  0.27394198  0.73508133  0.61286241    -0.32800
S304        S  0.09923448  0.93983038  0.61405627    -0.32800
H305        H  0.13672201  0.97217922  0.64844685     0.28500
H306        H  0.23291050  0.69223385  0.61786743     0.28500
H307        H  0.15874548  0.73725598  0.58149251     0.19100
H308        H  0.21673037  0.93711214  0.60916419     0.19100
C309        C  0.40816867  0.53491406  0.71217461    -0.06700
C310        C  0.43083967  0.47804345  0.71446698    -0.17800
C311        C  0.41817137  0.43599152  0.67202404     0.10500
C312        C  0.37885193  0.44864469  0.62891648    -0.06600
C313        C  0.34334959  0.49614505  0.63870294    -0.17900
C314        C  0.35708525  0.53938869  0.67885611     0.10500
S315        S  0.45104124  0.36683863  0.67519664    -0.32800
S316        S  0.30910608  0.59979388  0.68222601    -0.32800
H317        H  0.26378478  0.57563186  0.65132012     0.28500
H318        H  0.40476740  0.33762799  0.65119647     0.28500
H319        H  0.45809635  0.46512545  0.74981682     0.19100
H320        H  0.30830312  0.50286362  0.60907371     0.19100
C321        C  0.43990565  0.64356346  0.71916961    -0.06700
C322        C  0.42607532  0.64878942  0.65842972    -0.17800
C323        C  0.41305649  0.70199883  0.63228229     0.10500
C324        C  0.41560003  0.75270284  0.66608302    -0.06600
C325        C  0.44450615  0.74907854  0.71994688    -0.17900
C326        C  0.46013593  0.69575307  0.74457036     0.10500
S327        S  0.39503808  0.70431453  0.55528690    -0.32800
S328        S  0.50324351  0.69921845  0.80916399    -0.32800
H329        H  0.54594440  0.66460761  0.78383675     0.28500
H330        H  0.37280826  0.64887117  0.55352736     0.28500
H331        H  0.42281917  0.61130631  0.63111748     0.19100
H332        H  0.45455794  0.78807766  0.74349651     0.19100
C333        C  0.38275825  0.58625497  0.80232829    -0.06700
C334        C  0.37104709  0.53332159  0.83036518    -0.17800
C335        C  0.31772410  0.52009559  0.85358142     0.10500
C336        C  0.27375150  0.56007610  0.84825893    -0.06600
C337        C  0.28612823  0.61450022  0.82845609    -0.17900
C338        C  0.33995106  0.62948954  0.80904333     0.10500
S339        S  0.30938008  0.45160495  0.88848730    -0.32800
S340        S  0.34846699  0.70492209  0.80009341    -0.32800
H341        H  0.29374037  0.71666666  0.77934641     0.28500
H342        H  0.25486139  0.45970448  0.91211703     0.28500
H343        H  0.40291721  0.50010630  0.83072896     0.19100
H344        H  0.25349785  0.64715296  0.83202487     0.19100
C345        C  0.34428938  0.92366132  0.01569790    -0.06700
C346        C  0.35087181  0.87908282  0.05730820    -0.17800
C347        C  0.38750982  0.88257886  0.10489738     0.10500
C348        C  0.42389597  0.92939047  0.11041292    -0.06600
C349        C  0.41286925  0.97715133  0.07638001    -0.17900
C350        C  0.37396487  0.97526527  0.02989476     0.10500
S351        S  0.38598461  0.82531726  0.15788773    -0.32800
S352        S  0.36627649  0.04106566  0.99129058    -0.32800
H353        H  0.36188519  0.01951950  0.93393402     0.28500
H354        H  0.40982547  0.85727224  0.20421038     0.28500
H355        H  0.32473890  0.84184685  0.05703802     0.19100
H356        H  0.43677353  0.01532299  0.08414094     0.19100
C357        C  0.31844298  0.92414472  0.89860821    -0.06700
C358        C  0.27739937  0.92167303  0.85346713    -0.17800
C359        C  0.29119224  0.91388306  0.79233865     0.10500
C360        C  0.34822385  0.90689535  0.77253674    -0.06600
C361        C  0.38934127  0.91072643  0.81637099    -0.17900
C362        C  0.37560558  0.92017425  0.87704971     0.10500
S363        S  0.23430092  0.91378606  0.74048459    -0.32800
S364        S  0.43474731  0.92347808  0.92384406    -0.32800
H365        H  0.45361395  0.97231322  0.89411832     0.28500
H366        H  0.19271996  0.93747172  0.77846245     0.28500
H367        H  0.23332599  0.92398210  0.86664105     0.19100
H368        H  0.43331725  0.90555017  0.80328548     0.19100
C369        C  0.26661739  0.86126552  0.96760561    -0.06700
C370        C  0.20750866  0.85932291  0.97610665    -0.17800
C371        C  0.18022130  0.80909544  0.99037657     0.10500
C372        C  0.20975995  0.75687686  0.98721018    -0.06600
C373        C  0.26654678  0.75644746  0.97068441    -0.17900
C374        C  0.29536628  0.80742287  0.95976554     0.10500
S375        S  0.10624132  0.81393325  0.01049194    -0.32800
S376        S  0.36900239  0.80104377  0.93861478    -0.32800
H377        H  0.37406318  0.74133220  0.94001925     0.28500
H378        H  0.10825287  0.76809398  0.05009440     0.28500
H379        H  0.18175331  0.89746903  0.97512390     0.19100
H380        H  0.28738287  0.71572612  0.96335587     0.19100
C381        C  0.70097920  0.45109460  0.95337046    -0.06700
C382        C  0.67615220  0.47325757  0.00625447    -0.17800
C383        C  0.70300560  0.51564301  0.04200347     0.10500
C384        C  0.75846061  0.53621825  0.02647011    -0.06600
C385        C  0.77671519  0.51705847  0.96904767    -0.17900
C386        C  0.75173375  0.47619993  0.93420093     0.10500
S387        S  0.65874705  0.54552456  0.10031752    -0.32800
S388        S  0.79079796  0.46187809  0.86569761    -0.32800
H389        H  0.74882703  0.43844404  0.83170216     0.28500
H390        H  0.70017755  0.57336826  0.13253313     0.28500
H391        H  0.63536881  0.45715861  0.02024394     0.19100
H392        H  0.80659306  0.54035624  0.94322592     0.19100
C393        C  0.55346618  0.32219889  0.94460765    -0.06700
C394        C  0.50185492  0.34608028  0.96620947    -0.17800
C395        C  0.47227474  0.32385088  0.01697155     0.10500
C396        C  0.49010298  0.27104696  0.04350143    -0.06600
C397        C  0.54589551  0.25419772  0.02439476    -0.17900
C398        C  0.57707326  0.27892992  0.97899200     0.10500
S399        S  0.41960506  0.37110842  0.04995432    -0.32800
S400        S  0.65129584  0.26032393  0.97475557    -0.32800
H401        H  0.64626061  0.20380026  0.99440927     0.28500
H402        H  0.40050573  0.33451146  0.09435396     0.28500
H403        H  0.48596956  0.38433374  0.94548460     0.19100
H404        H  0.57004194  0.22305739  0.04730329     0.19100
C405        C  0.57824069  0.48305199  0.81061550    -0.06700
C406        C  0.55145554  0.51855106  0.85367017    -0.17800
C407        C  0.50558962  0.55532999  0.84050048     0.10500
C408        C  0.49054785  0.56494022  0.77996355    -0.06600
C409        C  0.53041615  0.54461273  0.73791213    -0.17900
C410        C  0.56435314  0.49640820  0.75058575     0.10500
S411        S  0.47125787  0.58663336  0.90526041    -0.32800
S412        S  0.56743104  0.44481298  0.69123669    -0.32800
H413        H  0.55988144  0.48215161  0.64364590     0.28500
H414        H  0.44316904  0.63211867  0.87901917     0.28500
H415        H  0.56356436  0.51604867  0.89938556     0.19100
H416        H  0.52244213  0.55461785  0.69206953     0.19100
C417        C  0.93808240  0.05211544  0.41408324    -0.06700
C418        C  0.96276492  0.07717410  0.36438685    -0.17800
C419        C  0.96652859  0.04507094  0.31163541     0.10500
C420        C  0.95842280  0.98394955  0.31388309    -0.06600
C421        C  0.95687273  0.96070483  0.37059495    -0.17900
C422        C  0.93045352  0.99205167  0.41402712     0.10500
S423        S  0.96797780  0.08820674  0.24621467    -0.32800
S424        S  0.87218892  0.95569124  0.45116411    -0.32800
H425        H  0.89219871  0.89951339  0.44333102     0.28500
H426        H  0.92223797  0.06220847  0.21837910     0.28500
H427        H  0.96843528  0.12295506  0.36346207     0.19100
H428        H  0.96141258  0.91583901  0.37859836     0.19100
C429        C  0.09624602  0.07788193  0.57686067    -0.06700
C430        C  0.09945278  0.03846183  0.52992126    -0.17800
C431        C  0.13925402  0.04220991  0.48408214     0.10500
C432        C  0.18158836  0.08532429  0.48558736    -0.06600
C433        C  0.17239397  0.12818728  0.52966120    -0.17900
C434        C  0.13532053  0.12208043  0.57756522     0.10500
S435        S  0.12231424  0.00156402  0.41855208    -0.32800
S436        S  0.13011001  0.17858290  0.63209449    -0.32800
H437        H  0.18285071  0.20330060  0.61912643     0.28500
H438        H  0.06315656  0.00419224  0.42533351     0.28500
H439        H  0.06456061  0.00924892  0.52441455     0.19100
H440        H  0.18781616  0.17055893  0.52454312     0.19100
C441        C  0.92463648  0.92617683  0.59155958    -0.06700
C442        C  0.96508232  0.92454019  0.54592916    -0.17800
C443        C  0.00703323  0.88290770  0.54237982     0.10500
C444        C  0.01597801  0.84596487  0.59118194    -0.06600
C445        C  0.97153841  0.84489882  0.63447870    -0.17900
C446        C  0.92637580  0.88366061  0.63453632     0.10500
S447        S  0.04656969  0.88052093  0.47388851    -0.32800
S448        S  0.87504118  0.88049898  0.69400101    -0.32800
H449        H  0.83450887  0.91565725  0.66718874     0.28500
H450        H  0.09590521  0.90416067  0.49665610     0.28500
H451        H  0.96820923  0.95983936  0.51585693     0.19100
H452        H  0.97034639  0.81291012  0.66849341     0.19100
C453        C  0.44360056  0.97347784  0.69389310    -0.06700
C454        C  0.42876527  0.01298860  0.73890062    -0.17800
C455        C  0.46936675  0.04939456  0.76608376     0.10500
C456        C  0.52691424  0.05163215  0.74433946    -0.06600
C457        C  0.53656194  0.02067175  0.69109048    -0.17900
C458        C  0.49924295  0.97911446  0.67015956     0.10500
S459        S  0.44684659  0.08785636  0.83178626    -0.32800
S460        S  0.53259756  0.92733501  0.62251797    -0.32800
H461        H  0.52192336  0.88369603  0.66340791     0.28500
H462        H  0.39006828  0.07050575  0.83299604     0.28500
H463        H  0.38572564  0.01313041  0.75534259     0.19100
H464        H  0.57767386  0.01985017  0.67025011     0.19100
C465        C  0.57218332  0.02304865  0.83635903    -0.06700
C466        C  0.56526951  0.96401165  0.82089832    -0.17800
C467        C  0.56214538  0.92093244  0.86372887     0.10500
C468        C  0.55973022  0.93681244  0.92348938    -0.06600
C469        C  0.55798448  0.99385328  0.93755376    -0.17900
C470        C  0.56557126  0.03708219  0.89736348     0.10500
S471        S  0.56213983  0.84756508  0.83988120    -0.32800
S472        S  0.57248318  0.10580922  0.93222374    -0.32800
H473        H  0.52944976  0.13126103  0.90010352     0.28500
H474        H  0.54028896  0.82556093  0.89308633     0.28500
H475        H  0.56815050  0.95044955  0.77513540     0.19100
H476        H  0.55487275  0.00403137  0.98239454     0.19100
C477        C  0.74758843  0.07757828  0.70151212    -0.06700
C478        C  0.73946690  0.03208845  0.73985906    -0.17800
C479        C  0.68597030  0.01965636  0.76438333     0.10500
C480        C  0.63785003  0.05540496  0.75003159    -0.06600
C481        C  0.64615118  0.09445680  0.70377095    -0.17900
C482        C  0.69917408  0.10744553  0.68110211     0.10500
S483        S  0.68833938  0.96406801  0.81921854    -0.32800
S484        S  0.70192831  0.16631735  0.62966798    -0.32800
H485        H  0.64603193  0.16219117  0.60948584     0.28500
H486        H  0.73085951  0.93099898  0.79119042     0.28500
H487        H  0.77607071  0.00740061  0.75285052     0.19100
H488        H  0.61058572  0.12016042  0.68980511     0.19100
C489        C  0.60407892  0.25239908  0.83532362    -0.06700
C490        C  0.64625478  0.21181968  0.84307836    -0.17800
C491        C  0.63911009  0.15363332  0.83156669     0.10500
C492        C  0.58764524  0.13185563  0.80527951    -0.06600
C493        C  0.54714294  0.17479656  0.79155509    -0.17900
C494        C  0.55357516  0.23319413  0.80850343     0.10500
S495        S  0.69934079  0.11290927  0.85664547    -0.32800
S496        S  0.49619510  0.28122150  0.79293065    -0.32800
H497        H  0.52933657  0.33024516  0.78589902     0.28500
H498        H  0.67003747  0.06628502  0.87845302     0.28500
H499        H  0.68526302  0.22526689  0.86254230     0.19100
H500        H  0.50983806  0.16349240  0.76721889     0.19100
C501        C  0.57439746  0.42999741  0.43842791    -0.06700
C502        C  0.58833814  0.47546819  0.47480360    -0.17800
C503        C  0.63299250  0.47191438  0.51364991     0.10500
C504        C  0.66973721  0.42335303  0.51173222    -0.06600
C505        C  0.65405377  0.37688537  0.47530855    -0.17900
C506        C  0.60747849  0.38016609  0.43844442     0.10500
S507        S  0.64465579  0.53419817  0.55865137    -0.32800
S508        S  0.59129449  0.31893176  0.39326028    -0.32800
H509        H  0.56754328  0.35071517  0.34716836     0.28500
H510        H  0.63841303  0.57121084  0.51058537     0.28500
H511        H  0.56253450  0.51350090  0.47438729     0.19100
H512        H  0.67723945  0.33744731  0.47430375     0.19100
C513        C  0.70690998  0.42437673  0.61155028    -0.06700
C514        C  0.71523014  0.46871648  0.65348308    -0.17800
C515        C  0.69935446  0.46398187  0.71431474     0.10500
C516        C  0.67726039  0.41146325  0.73677261    -0.06600
C517        C  0.67223388  0.36662451  0.69622289    -0.17900
C518        C  0.68272108  0.37283095  0.63536831     0.10500
S519        S  0.70803389  0.52834014  0.75775255    -0.32800
S520        S  0.66663619  0.31059247  0.59103793    -0.32800
H521        H  0.62635336  0.28622654  0.62934926     0.28500
H522        H  0.68858139  0.50970874  0.81269775     0.28500
H523        H  0.73221564  0.50885347  0.63897932     0.19100
H524        H  0.65524771  0.32667768  0.71183652     0.19100
C525        C  0.81253275  0.26458055  0.54369927    -0.06700
C526        C  0.79850192  0.28571431  0.48842545    -0.17800
C527        C  0.77963584  0.34210829  0.48257790     0.10500
C528        C  0.76984265  0.37603706  0.53460267    -0.06600
C529        C  0.79889958  0.35823003  0.58547316    -0.17900
C530        C  0.81301734  0.30167112  0.59285468     0.10500
S531        S  0.77596465  0.36933690  0.40874003    -0.32800
S532        S  0.82814287  0.27914106  0.66724201    -0.32800
H533        H  0.81357098  0.22197891  0.65874830     0.28500
H534        H  0.79286471  0.31990115  0.37753879     0.28500
H535        H  0.80566431  0.25896723  0.44974440     0.19100
H536        H  0.80289805  0.38608503  0.62360262     0.19100
C537        C  0.98663936  0.33938612  0.93362882    -0.06700
C538        C  0.02787284  0.35361807  0.88922791    -0.17800
C539        C  0.07535218  0.38612924  0.90003045     0.10500
C540        C  0.08036991  0.41532993  0.95353792    -0.06600
C541        C  0.04306067  0.40182910  0.99954844    -0.17900
C542        C  0.99893984  0.36219586  0.99190534     0.10500
S543        S  0.12591783  0.39506499  0.84028260    -0.32800
S544        S  0.96811247  0.33976834  0.06136829    -0.32800
H545        H  0.91814874  0.31553297  0.04316751     0.28500
H546        H  0.17043910  0.41172402  0.87713281     0.28500
H547        H  0.02907685  0.33496579  0.84581413     0.19100
H548        H  0.04697812  0.42425942  0.04132197     0.19100
C549        C  0.88055620  0.29542023  0.92790632    -0.06700
C550        C  0.85687579  0.34432883  0.95595307    -0.17800
C551        C  0.79787485  0.35506369  0.95646272     0.10500
C552        C  0.76382974  0.33592555  0.90825674    -0.06600
C553        C  0.78747773  0.28848620  0.87792528    -0.17900
C554        C  0.84006599  0.26374851  0.89353087     0.10500
S555        S  0.76996508  0.37282880  0.02876752    -0.32800
S556        S  0.85078941  0.19172210  0.86668097    -0.32800
H557        H  0.88969370  0.17631071  0.91008915     0.28500
H558        H  0.71581916  0.35111021  0.01895012     0.28500
H559        H  0.88257289  0.37248457  0.98186866     0.19100
H560        H  0.76424844  0.26732590  0.84373817     0.19100
C561        C  0.97688681  0.22910890  0.73738047    -0.06700
C562        C  0.95129960  0.28191339  0.74848627    -0.17800
C563        C  0.94025547  0.30074964  0.80669688     0.10500
C564        C  0.95594431  0.26558217  0.85572262    -0.06600
C565        C  0.98094825  0.21221660  0.84204554    -0.17900
C566        C  0.99551986  0.19641546  0.78509554     0.10500
S567        S  0.90807772  0.37040385  0.81701046    -0.32800
S568        S  0.03088647  0.12876740  0.77570997    -0.32800
H569        H  0.06439867  0.14861142  0.72892988     0.28500
H570        H  0.90425314  0.38507546  0.75696684     0.28500
H571        H  0.93670810  0.30657054  0.71138816     0.19100
H572        H  0.98878137  0.18059082  0.87537188     0.19100
C573        C  0.82153637  0.58000549  0.12225250    -0.06700
C574        C  0.86481684  0.61937328  0.13860002    -0.17800
C575        C  0.88233214  0.62938183  0.19712130     0.10500
C576        C  0.85504398  0.60303721  0.24516598    -0.06600
C577        C  0.81506507  0.56079549  0.23004367    -0.17900
C578        C  0.80200316  0.54595347  0.17029995     0.10500
S579        S  0.93996921  0.67757964  0.20676605    -0.32800
S580        S  0.76932443  0.47798943  0.15941797    -0.32800
H581        H  0.80241304  0.46527929  0.10891854     0.28500
H582        H  0.96373501  0.64797960  0.25432064     0.28500
H583        H  0.88590385  0.64443013  0.10543421     0.19100
H584        H  0.79370827  0.53832923  0.26511880     0.19100
C585        C  0.74868922  0.66761752  0.41395301    -0.06700
C586        C  0.73259584  0.68593929  0.47159994    -0.17800
C587        C  0.67512699  0.69246564  0.49040104     0.10500
C588        C  0.63033098  0.68472913  0.44913148    -0.06600
C589        C  0.64727518  0.65119194  0.39915320    -0.17900
C590        C  0.70379013  0.64948113  0.37771234     0.10500
S591        S  0.66595565  0.67888228  0.56843698    -0.32800
S592        S  0.71642046  0.62425141  0.30346898    -0.32800
H593        H  0.66019615  0.62771920  0.28412414     0.28500
H594        H  0.60741358  0.67233193  0.56896628     0.28500
H595        H  0.76505092  0.69062235  0.50434165     0.19100
H596        H  0.61509220  0.63251515  0.37198453     0.19100
C597        C  0.91101564  0.76935695  0.33616430    -0.06700
C598        C  0.96132075  0.77747600  0.30284077    -0.17800
C599        C  0.97257632  0.82859122  0.27121046     0.10500
C600        C  0.93867564  0.87846145  0.28177979    -0.06600
C601        C  0.88849409  0.86849548  0.31612741    -0.17900
C602        C  0.87349599  0.81585918  0.34020218     0.10500
S603        S  0.02789443  0.82389046  0.21599310    -0.32800
S604        S  0.80533659  0.81243168  0.37621303    -0.32800
H605        H  0.82121015  0.77328530  0.41909161     0.28500
H606        H  0.99717499  0.85220456  0.17230006     0.28500
H607        H  0.99038913  0.74195328  0.29765806     0.19100
H608        H  0.86003755  0.90329938  0.32639771     0.19100
C609        C  0.96751321  0.71042225  0.44553166    -0.06700
C610        C  0.02612741  0.71857535  0.43584438    -0.17800
C611        C  0.06179087  0.74433625  0.47954287     0.10500
C612        C  0.03955470  0.75863658  0.53763969    -0.06600
C613        C  0.98316511  0.74042402  0.54752270    -0.17900
C614        C  0.94654005  0.72514090  0.50211770     0.10500
S615        S  0.13446578  0.75295586  0.45702775    -0.32800
S616        S  0.87204144  0.73038669  0.51777367    -0.32800
H617        H  0.87579192  0.76861060  0.56590769     0.28500
H618        H  0.13892508  0.81044638  0.47262341     0.28500
H619        H  0.04411159  0.70621724  0.39330986     0.19100
H620        H  0.96489946  0.74418816  0.59133881     0.19100
C621        C  0.94376470  0.54475957  0.32914892    -0.06700
C622        C  0.00099675  0.55302344  0.34043477    -0.17800
C623        C  0.04294376  0.51429487  0.32069461     0.10500
C624        C  0.02890438  0.46939068  0.27911240    -0.06600
C625        C  0.97023988  0.45956959  0.27341773    -0.17900
C626        C  0.92883616  0.49280354  0.30239000     0.10500
S627        S  0.11305109  0.52682875  0.34956224    -0.32800
S628        S  0.86079818  0.46127951  0.31252784    -0.32800
H629        H  0.85733128  0.47856704  0.37203769     0.28500
H630        H  0.09946733  0.56979858  0.39120119     0.28500
H631        H  0.01316164  0.59082758  0.36473633     0.19100
H632        H  0.95532316  0.42611960  0.24515565     0.19100
C633        C  0.75830857  0.48017356  0.51541666    -0.06700
C634        C  0.80237622  0.50705713  0.54690099    -0.17800
C635        C  0.83220360  0.55467022  0.52429545     0.10500
C636        C  0.82103471  0.57424692  0.46618458    -0.06600
C637        C  0.78381697  0.54311216  0.43256385    -0.17900
C638        C  0.75100526  0.49972838  0.45479789     0.10500
S639        S  0.88228169  0.58733076  0.57324454    -0.32800
S640        S  0.70038174  0.47763965  0.39911558    -0.32800
H641        H  0.73587959  0.48107475  0.34884249     0.28500
H642        H  0.91249151  0.61750256  0.53085178     0.28500
H643        H  0.81392375  0.49105676  0.58987283     0.19100
H644        H  0.77910185  0.55456364  0.38661015     0.19100
C645        C  0.10296983  0.27454616  0.15568713    -0.06700
C646        C  0.05729028  0.28242762  0.19543424    -0.17800
C647        C  0.04124093  0.33677655  0.21954214     0.10500
C648        C  0.06374808  0.38919156  0.19480507    -0.06600
C649        C  0.10094896  0.37913741  0.14588450    -0.17900
C650        C  0.12498458  0.32528652  0.13155260     0.10500
S651        S  0.99298189  0.32981966  0.28172669    -0.32800
S652        S  0.18840177  0.32644581  0.08770844    -0.32800
H653        H  0.21674503  0.28946049  0.12604356     0.28500
H654        H  0.01906345  0.36646502  0.32177474     0.28500
H655        H  0.03558865  0.24504438  0.21092788     0.19100
H656        H  0.11864346  0.41478718  0.12348178     0.19100
C657        C  0.20729329  0.08577445  0.37590143    -0.06700
C658        C  0.16185655  0.12445715  0.36511081    -0.17800
C659        C  0.13999738  0.13485931  0.30846755     0.10500
C660        C  0.16272651  0.10680820  0.25805934    -0.06600
C661        C  0.20565981  0.06612919  0.26831929    -0.17900
C662        C  0.22800760  0.05500007  0.32511997     0.10500
S663        S  0.08353607  0.18585909  0.30419098    -0.32800
S664        S  0.28893252  0.00886902  0.32567323    -0.32800
H665        H  0.32346544  0.05026717  0.35180744     0.28500
H666        H  0.06073786  0.16187164  0.25286136     0.28500
H667        H  0.14452538  0.14957971  0.40148512     0.19100
H668        H  0.22277751  0.04274675  0.23093937     0.19100
C669        C  0.27598541  0.17516139  0.10500982    -0.06700
C670        C  0.29151221  0.21847947  0.06515092    -0.17800
C671        C  0.34854992  0.23501056  0.05390163     0.10500
C672        C  0.39422789  0.21279373  0.08895891    -0.06600
C673        C  0.37742279  0.16304257  0.12109591    -0.17900
C674        C  0.32114532  0.14508041  0.12990433     0.10500
S675        S  0.35578049  0.27212026  0.98477332    -0.32800
S676        S  0.30936089  0.07981701  0.16874300    -0.32800
H677        H  0.36103829  0.07834255  0.19891347     0.28500
H678        H  0.40619661  0.24651860  0.96616775     0.28500
H679        H  0.25915494  0.23750830  0.03863413     0.19100
H680        H  0.40900630  0.13455547  0.13804774     0.19100
C681        C  0.00094785  0.95742911  0.21807355    -0.06700
C682        C  0.99159680  0.98402182  0.16291980    -0.17800
C683        C  0.02844150  0.02529533  0.13885854     0.10500
C684        C  0.08031894  0.03895220  0.16760181    -0.06600
C685        C  0.09607991  0.00026300  0.21174806    -0.17900
C686        C  0.05810473  0.96167938  0.23837648     0.10500
S687        S  0.00023907  0.06447554  0.07754503    -0.32800
S688        S  0.08782885  0.92353840  0.29996041    -0.32800
H689        H  0.03995831  0.89744339  0.32217068     0.28500
H690        H  0.96424247  0.02187420  0.05574725     0.28500
H691        H  0.95120537  0.98099269  0.14224678     0.19100
H692        H  0.13849819  0.99964395  0.22694442     0.19100
C693        C  0.97745906  0.24080641  0.96462053    -0.06700
C694        C  0.03653432  0.23582522  0.95470873    -0.17800
C695        C  0.07442234  0.22137270  0.99775568     0.10500
C696        C  0.05512829  0.20227855  0.05304621    -0.06600
C697        C  0.99592411  0.19829494  0.06195073    -0.17900
C698        C  0.95665237  0.21547002  0.01769734     0.10500
S699        S  0.14638319  0.23605516  0.97781495    -0.32800
S700        S  0.88190483  0.20661218  0.03152105    -0.32800
H701        H  0.88661840  0.18196463  0.08778560     0.28500
H702        H  0.16904990  0.22534514  0.03229822     0.28500
H703        H  0.05495462  0.25078656  0.91375081     0.19100
H704        H  0.98053223  0.18225584  0.10385152     0.19100
C705        C  0.25557818  0.96985206  0.98895725    -0.06700
C706        C  0.24675167  0.01993759  0.95566531    -0.17800
C707        C  0.22813453  0.07176737  0.98275150     0.10500
C708        C  0.21196962  0.07324786  0.04333303    -0.06600
C709        C  0.21315009  0.02205825  0.07400038    -0.17900
C710        C  0.23333435  0.97121843  0.04876670     0.10500
S711        S  0.23316206  0.13635085  0.94114452    -0.32800
S712        S  0.23089843  0.91046879  0.09771899    -0.32800
H713        H  0.18357715  0.92846014  0.13150677     0.28500
H714        H  0.24584921  0.11132885  0.88576727     0.28500
H715        H  0.26151589  0.02112230  0.91036502     0.19100
H716        H  0.19949152  0.02202333  0.11981480     0.19100
loop_ 
_geom_bond_atom_site_label_1 
_geom_bond_atom_site_label_2 
_geom_bond_distance 
_geom_bond_site_symmetry_2 
_ccdc_geom_bond_type 
C1            H2   1.110       .  S
C1            C7   1.581       .  S
C1            C6   1.580       .  S
C1            C5   1.586       .  S
C3            H4   1.102       .  S
C3            C9   1.556       .  S
C3            C8   1.556       .  S
C3           C10   1.550       .  S
C5            C8   1.407       .  D
C5          C660   1.533       .  S
C6            C9   1.380       .  D
C6          C645   1.551       .  S
C7           C10   1.384       .  D
C7          C669   1.541       .  S
C8          C684   1.555       .  S
C9          C696   1.503       .  S
C10         C708   1.514       .  S
C11          H12   1.110       .  S
C11          C17   1.578       .  S
C11          C16   1.574       .  S
C11          C15   1.573       .  S
C13          H14   1.109       .  S
C13          C19   1.558       .  S
C13          C18   1.558       .  S
C13          C20   1.545       .  S
C15          C18   1.389       .  D
C15         C576   1.543       .  S
C16          C19   1.383       .  D
C16         C597   1.521       .  S
C17          C20   1.394       .  D
C17         C585   1.550       .  S
C18         C621   1.507       .  S
C19         C609   1.532       .  S
C20         C636   1.509       .  S
C21         C537   1.600       .  S
C21         C549   1.607       .  S
C21         C564   1.574       .  S
C21         C693   1.589       .  S
C22         C504   1.537       .  S
C22         C513   1.614       .  S
C22         C528   1.568       .  S
C22         C633   1.589       .  S
C23         C456   1.613       .  S
C23         C465   1.557       .  S
C23         C480   1.581       .  S
C23         C492   1.613       .  S
O24         Cr42   1.925       .  S
O24          C32   1.249       .  A
O25         Cr42   2.071       .  S
O25          C26   1.275       .  A
C26          O27   1.230       .  A
C26         C477   1.485       .  S
O27         Cr43   1.899       .  S
O28         Cr43   2.025       .  S
O28          C29   1.270       .  A
C29          O30   1.245       .  A
C29         C525   1.444       .  S
O30         Cr44   1.899       .  S
O31         Cr44   2.045       .  S
O31          C32   1.272       .  A
C32         C561   1.452       .  S
O33         Cr42   2.071   1_455  S
O33          C41   1.279       .  A
O34         Cr42   1.892       .  S
O34          C35   1.244   1_545  A
C35          O36   1.281   1_565  A
C35         C441   1.457       .  S
O36         Cr43   2.058       .  S
O37         Cr43   1.861       .  S
O37          C38   1.232       .  A
C38          O39   1.271       .  A
C38         C417   1.462       .  S
O39         Cr44   2.034       .  S
O40         Cr44   1.882   1_455  S
O40          C41   1.239       .  A
C41         C429   1.458       .  S
Cr42         O45   1.755       .  S
Cr43         O45   1.735       .  S
Cr44         O45   1.756       .  S
C46          H47   1.104       .  S
C46          C52   1.583       .  S
C46          C51   1.576       .  S
C46          C50   1.557       .  S
C48          H49   1.103       .  S
C48          C54   1.569       .  S
C48          C53   1.560       .  S
C48          C55   1.578       .  S
C50          C53   1.388       .  D
C50         C489   1.531       .  S
C51          C54   1.390       .  D
C51         C552   1.574       .  S
C52          C55   1.397       .  D
C52         C516   1.530       .  S
C53         C393   1.529       .  S
C54         C381   1.510       .  S
C55         C405   1.562       .  S
C56         C345   1.584   1_556  S
C56         C357   1.613       .  S
C56         C369   1.569       .  S
C56         C705   1.594       .  S
C57         C309   1.606       .  S
C57         C321   1.612       .  S
C57         C333   1.568       .  S
C57         C408   1.592       .  S
C58         C285   1.581       .  S
C58         C297   1.602       .  S
C58         C444   1.568       .  S
C58         C612   1.617       .  S
O59         Cr77   1.904       .  S
O59          C67   1.245       .  A
O60         Cr77   2.021       .  S
O60          C61   1.269       .  A
C61          O62   1.251       .  A
C61         C288   1.472       .  S
O62         Cr78   1.951       .  S
O63         Cr78   2.038       .  S
O63          C64   1.274       .  A
C64          O65   1.248       .  A
C64         C336   1.450       .  S
O65         Cr79   1.906       .  S
O66         Cr79   2.053   1_554  S
O66          C67   1.277   1_554  A
C67         C372   1.455       .  S
O68         Cr77   2.043   1_554  S
O68          C76   1.270       .  A
O69         Cr77   1.886       .  S
O69          C70   1.245   1_455  A
C70          O71   1.273   1_655  A
C70         C264   1.445       .  S
O71         Cr78   2.042       .  S
O72         Cr78   1.913       .  S
O72          C73   1.243       .  A
C73          O74   1.269       .  A
C73         C540   1.460       .  S
O74         Cr79   2.039       .  S
O75         Cr79   1.909   1_554  S
O75          C76   1.244       .  A
C76         C273   1.459       .  S
Cr77         O80   1.753       .  S
Cr78         O80   1.752       .  S
Cr79         O80   1.769       .  S
C81         C237   1.566       .  S
C81         C249   1.586       .  S
C81         C396   1.632       .  S
C81         C672   1.645       .  S
C82         C213   1.612       .  S
C82         C225   1.598       .  S
C82         C432   1.590       .  S
C82         C657   1.589       .  S
C83         C204   1.566       .  S
C83         C276   1.570       .  S
C83         C624   1.587       .  S
C83         C648   1.625       .  S
O84        Cr102   1.886       .  S
O84          C92   1.245       .  A
O85        Cr102   2.056       .  S
O85          C86   1.276       .  A
C86          O87   1.246       .  A
C86         C252   1.458       .  S
O87        Cr103   1.922       .  S
O88        Cr103   2.036       .  S
O88          C89   1.271       .  A
C89          O90   1.240       .  A
C89         C201   1.482       .  S
O90        Cr104   1.904       .  S
O91        Cr104   2.082       .  S
O91          C92   1.287       .  A
C92         C228   1.468       .  S
O93        Cr102   2.076       .  S
O93         C101   1.270       .  A
O94        Cr102   1.904       .  S
O94          C95   1.249       .  A
C95          O96   1.271       .  A
C95         C501   1.431       .  S
O96        Cr103   2.034       .  S
O97        Cr103   1.925       .  S
O97          C98   1.246       .  A
C98          O99   1.280       .  A
C98         C189   1.483       .  S
O99        Cr104   2.055       .  S
O100       Cr104   1.883       .  S
O100        C101   1.231       .  A
C101        C312   1.483       .  S
Cr102       O105   1.766       .  S
Cr103       O105   1.766       .  S
Cr104       O105   1.740       .  S
C106        H107   1.110       .  S
C106        C112   1.577       .  S
C106        C111   1.574       .  S
C106        C110   1.570       .  S
C108        H109   1.104       .  S
C108        C114   1.563       .  S
C108        C113   1.571       .  S
C108        C115   1.564       .  S
C110        C113   1.402       .  D
C110        C360   1.545       .  S
C111        C114   1.379       .  D
C111        C324   1.527       .  S
C112        C115   1.398       .  D
C112        C300   1.537       .  S
C113        C453   1.547       .  S
C114        C177   1.533       .  S
C115        C216   1.548       .  S
C116        C165   1.586       .  S
C116        C420   1.556       .  S
C116        C600   1.622       .  S
C116        C681   1.594   1_655  S
C117        C156   1.571       .  S
C117        C180   1.598       .  S
C117        C192   1.592       .  S
C117        C588   1.624       .  S
C118        C141   1.559       .  S
C118        C261   1.568       .  S
C118        C384   1.625       .  S
C118        C573   1.625       .  S
O119       Cr137   1.956       .  S
O119        C127   1.254       .  A
O120       Cr137   2.002       .  S
O120        C121   1.268       .  A
C121        O122   1.259       .  A
C121        C153   1.465       .  S
O122       Cr138   1.968       .  S
O123       Cr138   2.021       .  S
O123        C124   1.275       .  A
C124        O125   1.254       .  A
C124        C168   1.472       .  S
O125       Cr139   1.961       .  S
O126       Cr139   1.977       .  S
O126        C127   1.261       .  A
C127        C144   1.446       .  S
O128       Cr137   2.025       .  S
O128        C136   1.273   1_554  A
O129       Cr137   1.957       .  S
O129        C130   1.250       .  A
C130        O131   1.270       .  A
C130        C348   1.481       .  S
O131       Cr138   2.034       .  S
O132       Cr138   1.960   1_545  S
O132        C133   1.249       .  A
C133        O134   1.273       .  A
C133        C240   1.484       .  S
O134       Cr139   2.020   1_545  S
O135       Cr139   1.983   1_556  S
O135        C136   1.250       .  A
C136        C468   1.467       .  S
Cr137       O140   1.768       .  S
Cr138       O140   1.763       .  S
Cr139       O140   1.760       .  S
C141        C142   1.420       .  A
C141        C146   1.439       .  A
C142        C143   1.387       .  A
C142        H151   1.077       .  S
C143        C144   1.405       .  A
C143        S147   1.811       .  S
C144        C145   1.390       .  A
C145        C146   1.391       .  A
C145        H152   1.085   1_554  S
C146        S148   1.806   1_554  S
S147        H150   1.391       .  S
S148        H149   1.408       .  S
C153        C154   1.402       .  A
C153        C158   1.398       .  A
C154        C155   1.398       .  A
C154        H163   1.083       .  S
C155        C156   1.423       .  A
C155        S159   1.809       .  S
C156        C157   1.426       .  A
C157        C158   1.394       .  A
C157        H164   1.080       .  S
C158        S160   1.801       .  S
S159        H162   1.406       .  S
S160        H161   1.406       .  S
C165        C166   1.411       .  A
C165        C170   1.455       .  A
C166        C167   1.393       .  A
C166        H175   1.080       .  S
C167        C168   1.412       .  A
C167        S171   1.797       .  S
C168        C169   1.381       .  A
C169        C170   1.400       .  A
C169        H176   1.085       .  S
C170        S172   1.797   1_565  S
S171        H174   1.407       .  S
S172        H173   1.409       .  S
C177        C178   1.414       .  A
C177        C182   1.421       .  A
C178        C179   1.416       .  A
C178        H187   1.080       .  S
C179        C180   1.414       .  A
C179        S183   1.805       .  S
C180        C181   1.413       .  A
C181        C182   1.411       .  A
C181        H188   1.076       .  S
C182        S184   1.804       .  S
S183        H186   1.409       .  S
S184        H185   1.406       .  S
C189        C190   1.388       .  A
C189        C194   1.411       .  A
C190        C191   1.409       .  A
C190        H199   1.084       .  S
C191        C192   1.456       .  A
C191        S195   1.811       .  S
C192        C193   1.409       .  A
C193        C194   1.410       .  A
C193        H200   1.071       .  S
C194        S196   1.801       .  S
S195        H198   1.408       .  S
S196        H197   1.406       .  S
C201        C202   1.396       .  A
C201        C206   1.419       .  A
C202        C203   1.408       .  A
C202        H211   1.084       .  S
C203        C204   1.451       .  A
C203        S207   1.823       .  S
C204        C205   1.402       .  A
C205        C206   1.381       .  A
C205        H212   1.071       .  S
C206        S208   1.811       .  S
S207        H210   1.388       .  S
S208        H209   1.408       .  S
C213        C214   1.421   1_545  A
C213        C218   1.428       .  A
C214        C215   1.420       .  A
C214        H223   1.070       .  S
C215        C216   1.422       .  A
C215        S219   1.804       .  S
C216        C217   1.416   1_565  A
C217        C218   1.421       .  A
C217        H224   1.080       .  S
C218        S220   1.812       .  S
S219        H222   1.405       .  S
S220        H221   1.407       .  S
C225        C226   1.424       .  A
C225        C230   1.433       .  A
C226        C227   1.408       .  A
C226        H235   1.083       .  S
C227        C228   1.410       .  A
C227        S231   1.802       .  S
C228        C229   1.398       .  A
C229        C230   1.396       .  A
C229        H236   1.084       .  S
C230        S232   1.810       .  S
S231        H234   1.406       .  S
S232        H233   1.408       .  S
C237        C238   1.429       .  A
C237        C242   1.409       .  A
C238        C239   1.401       .  A
C238        H247   1.080       .  S
C239        C240   1.411       .  A
C239        S243   1.804       .  S
C240        C241   1.397       .  A
C241        C242   1.383       .  A
C241        H248   1.061       .  S
C242        S244   1.796   1_554  S
S243        H246   1.407       .  S
S244        H245   1.398       .  S
C249        C250   1.433       .  A
C249        C254   1.433       .  A
C250        C251   1.394       .  A
C250        H259   1.064       .  S
C251        C252   1.383       .  A
C251        S255   1.806       .  S
C252        C253   1.400       .  A
C253        C254   1.401       .  A
C253        H260   1.085       .  S
C254        S256   1.800       .  S
S255        H258   1.407       .  S
S256        H257   1.406       .  S
C261        C262   1.415       .  A
C261        C266   1.433   1_554  A
C262        C263   1.391   1_554  A
C262        H271   1.083       .  S
C263        C264   1.394       .  A
C263        S267   1.784       .  S
C264        C265   1.400       .  A
C265        C266   1.399       .  A
C265        H272   1.086       .  S
C266        S268   1.810       .  S
S267        H270   1.407       .  S
S268        H269   1.398   1_556  S
C273        C274   1.399       .  A
C273        C278   1.394       .  A
C274        C275   1.405       .  A
C274        H283   1.080   1_455  S
C275        C276   1.426       .  A
C275        S279   1.785   1_455  S
C276        C277   1.428       .  A
C277        C278   1.398       .  A
C277        H284   1.075       .  S
C278        S280   1.799       .  S
S279        H282   1.405       .  S
S280        H281   1.408       .  S
C285        C286   1.419       .  A
C285        C290   1.443       .  A
C286        C287   1.400       .  A
C286        H295   1.080       .  S
C287        C288   1.410       .  A
C287        S291   1.802       .  S
C288        C289   1.384       .  A
C289        C290   1.393       .  A
C289        H296   1.084       .  S
C290        S292   1.798       .  S
S291        H294   1.407       .  S
S292        H293   1.408       .  S
C297        C298   1.414       .  A
C297        C302   1.449       .  A
C298        C299   1.414       .  A
C298        H307   1.081       .  S
C299        C300   1.418       .  A
C299        S303   1.789       .  S
C300        C301   1.400       .  A
C301        C302   1.420       .  A
C301        H308   1.083       .  S
C302        S304   1.798       .  S
S303        H306   1.406       .  S
S304        H305   1.408       .  S
C309        C310   1.437       .  A
C309        C314   1.435       .  A
C310        C311   1.407       .  A
C310        H319   1.077       .  S
C311        C312   1.387       .  A
C311        S315   1.797       .  S
C312        C313   1.406       .  A
C313        C314   1.398       .  A
C313        H320   1.083       .  S
C314        S316   1.811       .  S
S315        H318   1.407       .  S
S316        H317   1.406       .  S
C321        C322   1.421       .  A
C321        C326   1.436       .  A
C322        C323   1.419       .  A
C322        H331   1.074       .  S
C323        C324   1.411       .  A
C323        S327   1.797       .  S
C324        C325   1.406       .  A
C325        C326   1.422       .  A
C325        H332   1.084       .  S
C326        S328   1.792       .  S
S327        H330   1.407       .  S
S328        H329   1.406       .  S
C333        C334   1.426       .  A
C333        C338   1.435       .  A
C334        C335   1.398       .  A
C334        H343   1.081       .  S
C335        C336   1.403       .  A
C335        S339   1.807       .  S
C336        C337   1.389       .  A
C337        C338   1.390       .  A
C337        H344   1.086       .  S
C338        S340   1.796       .  S
S339        H342   1.401       .  S
S340        H341   1.409       .  S
C345        C346   1.421       .  A
C345        C350   1.440       .  A
C346        C347   1.391       .  A
C346        H355   1.074       .  S
C347        C348   1.406       .  A
C347        S351   1.807       .  S
C348        C349   1.389       .  A
C349        C350   1.405       .  A
C349        H356   1.077   1_565  S
C350        S352   1.789   1_564  S
S351        H354   1.408       .  S
S352        H353   1.393       .  S
C357        C358   1.418       .  A
C357        C362   1.434       .  A
C358        C359   1.426       .  A
C358        H367   1.082       .  S
C359        C360   1.425       .  A
C359        S363   1.795       .  S
C360        C361   1.399       .  A
C361        C362   1.421       .  A
C361        H368   1.084       .  S
C362        S364   1.765       .  S
S363        H366   1.407       .  S
S364        H365   1.406       .  S
C369        C370   1.410       .  A
C369        C374   1.440       .  A
C370        C371   1.386       .  A
C370        H379   1.080       .  S
C371        C372   1.408       .  A
C371        S375   1.806   1_556  S
C372        C373   1.390       .  A
C373        C374   1.403       .  A
C373        H380   1.083       .  S
C374        S376   1.806       .  S
S375        H378   1.406       .  S
S376        H377   1.406       .  S
C381        C382   1.419   1_556  A
C381        C386   1.406       .  A
C382        C383   1.433       .  A
C382        H391   1.083       .  S
C383        C384   1.442       .  A
C383        S387   1.808       .  S
C384        C385   1.431   1_554  A
C385        C386   1.376       .  A
C385        H392   1.068       .  S
C386        S388   1.821       .  S
S387        H390   1.391       .  S
S388        H389   1.377       .  S
C393        C394   1.420       .  A
C393        C398   1.401       .  A
C394        C395   1.440   1_556  A
C394        H403   1.083       .  S
C395        C396   1.444       .  A
C395        S399   1.813       .  S
C396        C397   1.436       .  A
C397        C398   1.390   1_554  A
C397        H404   1.066       .  S
C398        S400   1.808       .  S
S399        H402   1.399       .  S
S400        H401   1.408       .  S
C405        C406   1.417       .  A
C405        C410   1.436       .  A
C406        C407   1.418       .  A
C406        H415   1.077       .  S
C407        C408   1.437       .  A
C407        S411   1.813       .  S
C408        C409   1.409       .  A
C409        C410   1.416       .  A
C409        H416   1.082       .  S
C410        S412   1.800       .  S
S411        H414   1.394       .  S
S412        H413   1.405       .  S
C417        C418   1.396       .  A
C417        C422   1.422   1_545  A
C418        C419   1.407       .  A
C418        H427   1.084       .  S
C419        C420   1.450   1_545  A
C419        S423   1.799       .  S
C420        C421   1.397       .  A
C421        C422   1.365       .  A
C421        H428   1.075       .  S
C422        S424   1.826       .  S
S423        H426   1.399       .  S
S424        H425   1.407       .  S
C429        C430   1.403       .  A
C429        C434   1.394       .  A
C430        C431   1.395       .  A
C430        H439   1.084       .  S
C431        C432   1.429       .  A
C431        S435   1.805       .  S
C432        C433   1.424       .  A
C433        C434   1.394       .  A
C433        H440   1.068       .  S
C434        S436   1.805       .  S
S435        H438   1.407       .  S
S436        H437   1.408       .  S
C441        C442   1.399       .  A
C441        C446   1.399       .  A
C442        C443   1.389   1_655  A
C442        H451   1.078       .  S
C443        C444   1.425       .  A
C443        S447   1.799       .  S
C444        C445   1.428   1_455  A
C445        C446   1.399       .  A
C445        H452   1.079       .  S
C446        S448   1.803       .  S
S447        H450   1.397       .  S
S448        H449   1.407       .  S
C453        C454   1.410   1_565  A
C453        C458   1.423       .  A
C454        C455   1.430       .  A
C454        H463   1.080       .  S
C455        C456   1.444       .  A
C455        S459   1.804       .  S
C456        C457   1.416       .  A
C457        C458   1.403   1_545  A
C457        H464   1.076       .  S
C458        S460   1.790       .  S
S459        H462   1.406       .  S
S460        H461   1.407       .  S
C465        C466   1.437   1_545  A
C465        C470   1.421       .  A
C466        C467   1.407       .  A
C466        H475   1.081       .  S
C467        C468   1.398       .  A
C467        S471   1.800       .  S
C468        C469   1.374       .  A
C469        C470   1.378   1_565  A
C469        H476   1.041   1_565  S
C470        S472   1.798       .  S
S471        H474   1.407       .  S
S472        H473   1.392       .  S
C477        C478   1.393       .  A
C477        C482   1.422       .  A
C478        C479   1.409       .  A
C478        H487   1.084       .  S
C479        C480   1.451       .  A
C479        S483   1.808   1_545  S
C480        C481   1.409       .  A
C481        C482   1.386       .  A
C481        H488   1.084       .  S
C482        S484   1.814       .  S
S483        H486   1.408       .  S
S484        H485   1.408       .  S
C489        C490   1.388       .  A
C489        C494   1.420       .  A
C490        C491   1.400       .  A
C490        H499   1.075       .  S
C491        C492   1.455       .  A
C491        S495   1.810       .  S
C492        C493   1.425       .  A
C493        C494   1.429       .  A
C493        H500   1.079       .  S
C494        S496   1.799       .  S
S495        H498   1.390       .  S
S496        H497   1.405       .  S
C501        C502   1.385       .  A
C501        C506   1.403       .  A
C502        C503   1.384       .  A
C502        H511   1.078       .  S
C503        C504   1.429       .  A
C503        S507   1.798       .  S
C504        C505   1.415       .  A
C505        C506   1.391       .  A
C505        H512   1.073       .  S
C506        S508   1.802       .  S
S507        H510   1.405       .  S
S508        H509   1.406       .  S
C513        C514   1.418       .  A
C513        C518   1.447       .  A
C514        C515   1.426       .  A
C514        H523   1.078       .  S
C515        C516   1.436       .  A
C515        S519   1.809       .  S
C516        C517   1.396       .  A
C517        C518   1.403       .  A
C517        H524   1.082       .  S
C518        S520   1.809       .  S
S519        H522   1.394       .  S
S520        H521   1.407       .  S
C525        C526   1.391       .  A
C525        C530   1.406       .  A
C526        C527   1.402       .  A
C526        H535   1.083       .  S
C527        C528   1.430       .  A
C527        S531   1.794       .  S
C528        C529   1.411       .  A
C529        C530   1.379       .  A
C529        H536   1.083       .  S
C530        S532   1.805       .  S
S531        H534   1.406       .  S
S532        H533   1.399       .  S
C537        C538   1.434   1_655  A
C537        C542   1.451       .  A
C538        C539   1.385       .  A
C538        H547   1.071       .  S
C539        C540   1.392       .  A
C539        S543   1.808       .  S
C540        C541   1.396       .  A
C541        C542   1.414   1_455  A
C541        H548   1.082   1_556  S
C542        S544   1.807   1_556  S
S543        H546   1.406       .  S
S544        H545   1.381       .  S
C549        C550   1.416       .  A
C549        C554   1.446       .  A
C550        C551   1.417       .  A
C550        H559   1.075       .  S
C551        C552   1.433       .  A
C551        S555   1.800   1_556  S
C552        C553   1.412       .  A
C553        C554   1.419       .  A
C553        H560   1.074       .  S
C554        S556   1.807       .  S
S555        H558   1.401       .  S
S556        H557   1.401       .  S
C561        C562   1.395       .  A
C561        C566   1.402       .  A
C562        C563   1.405       .  A
C562        H571   1.081       .  S
C563        C564   1.438       .  A
C563        S567   1.811       .  S
C564        C565   1.412       .  A
C565        C566   1.376       .  A
C565        H572   1.078       .  S
C566        S568   1.800   1_655  S
S567        H570   1.406       .  S
S568        H569   1.399       .  S
C573        C574   1.433       .  A
C573        C578   1.428       .  A
C574        C575   1.409       .  A
C574        H583   1.076       .  S
C575        C576   1.406       .  A
C575        S579   1.791       .  S
C576        C577   1.417       .  A
C577        C578   1.429       .  A
C577        H584   1.078       .  S
C578        S580   1.793       .  S
S579        H582   1.405       .  S
S580        H581   1.405       .  S
C585        C586   1.416       .  A
C585        C590   1.414       .  A
C586        C587   1.427       .  A
C586        H595   1.078       .  S
C587        C588   1.431       .  A
C587        S591   1.805       .  S
C588        C589   1.423       .  A
C589        C590   1.417       .  A
C589        H596   1.077       .  S
C590        S592   1.796       .  S
S591        H594   1.394       .  S
S592        H593   1.407       .  S
C597        C598   1.416       .  A
C597        C602   1.404       .  A
C598        C599   1.426       .  A
C598        H607   1.082       .  S
C599        C600   1.431       .  A
C599        S603   1.800   1_655  S
C600        C601   1.432       .  A
C601        C602   1.400       .  A
C601        H608   1.077       .  S
C602        S604   1.800       .  S
S603        H606   1.402   1_455  S
S604        H605   1.394       .  S
C609        C610   1.416   1_655  A
C609        C614   1.406       .  A
C610        C611   1.438       .  A
C610        H619   1.083       .  S
C611        C612   1.445       .  A
C611        S615   1.801       .  S
C612        C613   1.419   1_455  A
C613        C614   1.397       .  A
C613        H620   1.078       .  S
C614        S616   1.797       .  S
S615        H618   1.397       .  S
S616        H617   1.408       .  S
C621        C622   1.395   1_655  A
C621        C626   1.406       .  A
C622        C623   1.408       .  A
C622        H631   1.082       .  S
C623        C624   1.449       .  A
C623        S627   1.814       .  S
C624        C625   1.416   1_455  A
C625        C626   1.401       .  A
C625        H632   1.072       .  S
C626        S628   1.789       .  S
S627        H630   1.407       .  S
S628        H629   1.403       .  S
C633        C634   1.418       .  A
C633        C638   1.460       .  A
C634        C635   1.421       .  A
C634        H643   1.081       .  S
C635        C636   1.422       .  A
C635        S639   1.801       .  S
C636        C637   1.379       .  A
C637        C638   1.379       .  A
C637        H644   1.082       .  S
C638        S640   1.822       .  S
S639        H642   1.390       .  S
S640        H641   1.408       .  S
C645        C646   1.407       .  A
C645        C650   1.414       .  A
C646        C647   1.430       .  A
C646        H655   1.078       .  S
C647        C648   1.457       .  A
C647        S651   1.809   1_455  S
C648        C649   1.422       .  A
C649        C650   1.416       .  A
C649        H656   1.067       .  S
C650        S652   1.789       .  S
S651        H654   1.395   1_655  S
S652        H653   1.404       .  S
C657        C658   1.427       .  A
C657        C662   1.431       .  A
C658        C659   1.409       .  A
C658        H667   1.083       .  S
C659        C660   1.410       .  A
C659        S663   1.792       .  S
C660        C661   1.412       .  A
C661        C662   1.419       .  A
C661        H668   1.077       .  S
C662        S664   1.797       .  S
S663        H666   1.400       .  S
S664        H665   1.404       .  S
C669        C670   1.411       .  A
C669        C674   1.403       .  A
C670        C671   1.427       .  A
C670        H679   1.075       .  S
C671        C672   1.445       .  A
C671        S675   1.802   1_554  S
C672        C673   1.436       .  A
C673        C674   1.412       .  A
C673        H680   1.075       .  S
C674        S676   1.793       .  S
S675        H678   1.391       .  S
S676        H677   1.407       .  S
C681        C682   1.417   1_455  A
C681        C686   1.437       .  A
C682        C683   1.415   1_665  A
C682        H691   1.071       .  S
C683        C684   1.432       .  A
C683        S687   1.801       .  S
C684        C685   1.406       .  A
C685        C686   1.413   1_545  A
C685        H692   1.065   1_545  S
C686        S688   1.808       .  S
S687        H690   1.407   1_455  S
S688        H689   1.382       .  S
C693        C694   1.417   1_655  A
C693        C698   1.427   1_556  A
C694        C695   1.373       .  A
C694        H703   1.081       .  S
C695        C696   1.403   1_556  A
C695        S699   1.792       .  S
C696        C697   1.417   1_455  A
C697        C698   1.431       .  A
C697        H704   1.082       .  S
C698        S700   1.806       .  S
S699        H702   1.373   1_556  S
S700        H701   1.406       .  S
C705        C706   1.416   1_565  A
C705        C710   1.445   1_556  A
C706        C707   1.422       .  A
C706        H715   1.078       .  S
C707        C708   1.417   1_556  A
C707        S711   1.794       .  S
C708        C709   1.392       .  A
C709        C710   1.397   1_545  A
C709        H716   1.081       .  S
C710        S712   1.812       .  S
S711        H714   1.406       .  S
S712        H713   1.408       .  S
