geometry optimzed in LAMMPS
_audit_creation_date              2020-11-30 
_audit_creation_method            'lammps2cif' 
_symmetry_space_group_name_H-M    'P1' 
_symmetry_Int_Tables_number       1 
_symmetry_cell_setting            triclinic 
loop_ 
_symmetry_equiv_pos_as_xyz 
  x,y,z 
_cell_length_a                    51.26175465 
_cell_length_b                    51.516706189866625 
_cell_length_c                    51.35431174186994 
_cell_angle_alpha                 89.56774385504403 
_cell_angle_beta                  90.06077391420558 
_cell_angle_gamma                 90.00298399749884 
loop_ 
_atom_site_label 
_atom_site_type_symbol 
_atom_site_fract_x 
_atom_site_fract_y 
_atom_site_fract_z 
_atom_site_charge 
Zr1        Zr  0.53936677  0.87559052  0.71095818     2.17500
O2          O  0.53808577  0.82844213  0.70607355    -0.51900
O3          O  0.58190007  0.87324350  0.68901694    -0.75100
O4          O  0.52478407  0.85852571  0.66975237    -0.81900
O5          O  0.52924386  0.87394819  0.78052540    -0.83600
O6          O  0.52568292  0.89485470  0.64552571    -0.79300
O7          O  0.55006815  0.85081293  0.74987528    -0.90900
O8          O  0.58718708  0.91260589  0.67038289    -0.76900
O9          O  0.54230790  0.90992042  0.68031805    -0.86400
O10         O  0.56349364  0.90881808  0.73303569    -0.86100
O11         O  0.49430906  0.88661269  0.70200416    -0.72800
O12         O  0.51377662  0.88913877  0.74745749    -0.84900
Zr13       Zr  0.49355121  0.96657022  0.72751885     2.26400
Zr14       Zr  0.49846408  0.92194110  0.67129403     2.06300
Zr15       Zr  0.53653155  0.92299793  0.76889480     2.10000
Zr16       Zr  0.56528974  0.94291646  0.70107395     1.78800
O17         O  0.52169119  0.93098038  0.81327484    -0.93700
O18         O  0.57339761  0.97064906  0.66311568    -0.41600
O19         O  0.53562114  0.95076284  0.73412214    -0.78200
O20         O  0.52115287  0.95751178  0.69054686    -0.96900
O21         O  0.47225425  0.93156075  0.70805802    -0.90200
O22         O  0.49174614  0.93404097  0.76082008    -0.93000
C23         C  0.59166622  0.88789527  0.67111903     1.00700
C24         C  0.53709211  0.85151928  0.77107128     1.13700
C25         C  0.52563825  0.87029446  0.64775625     1.04400
O26         O  0.50424849  0.95110172  0.63421812    -0.95200
O27         O  0.45985954  0.94725067  0.66410156    -0.90900
O28         O  0.45818855  0.97575593  0.69743136    -0.84100
C29         C  0.44865621  0.96519060  0.67700049     1.11100
O30         O  0.45791116  0.85346753  0.74577728    -0.97200
Zr31       Zr  0.46929035  0.89910412  0.74000520     1.88900
O32         O  0.45189175  0.97032687  0.75064348    -0.73800
O33         O  0.47158127  0.89309754  0.64513317    -0.53100
O34         O  0.43180013  0.88604441  0.71404954    -0.97700
O35         O  0.46345617  0.88671838  0.78556563    -0.55000
O36         O  0.43471633  0.92979592  0.75211949    -0.74300
C37         C  0.43307257  0.95447934  0.75553585     0.98000
O38         O  0.49526257  0.01231369  0.71488450    -0.63100
O39         O  0.57686957  0.91758832  0.79360753    -0.57900
O40         O  0.50616808  0.99103316  0.76431049    -0.94600
O41         O  0.54562361  0.97311316  0.76758439    -0.93000
O42         O  0.60815207  0.93837987  0.72152000    -0.93400
O43         O  0.58799315  0.98311552  0.71110278    -0.92200
C44         C  0.53054581  0.99380118  0.76633634     1.16900
H45         H  0.58034728  0.90249034  0.73875093     0.32800
H46         H  0.52153432  0.97230397  0.67885882     0.43700
H47         H  0.48313108  0.93985169  0.77647472     0.37200
H48         H  0.48543394  0.87220203  0.69396851     0.33700
H49         H  0.59086560  0.96540485  0.65674151     0.25500
H50         H  0.46550447  0.90386351  0.63029316     0.31400
H51         H  0.41698654  0.88553222  0.72635894     0.37300
H52         H  0.61880635  0.92852140  0.70891200     0.31800
H53         H  0.57701081  0.93216916  0.80604613     0.30600
H54         H  0.52176403  0.91365581  0.82179146     0.32300
H55         H  0.45120970  0.89970191  0.79264421     0.31300
H56         H  0.58706956  0.98449172  0.73031227     0.35300
H57         H  0.49539219  0.01246685  0.69561503     0.28000
H58         H  0.55541088  0.82184178  0.71151391     0.32300
H59         H  0.44080245  0.85328000  0.75476282     0.35100
H60         H  0.57384991  0.90196656  0.80462948     0.27700
H61         H  0.47795243  0.01946453  0.71964041     0.40600
H62         H  0.50565877  0.93948151  0.61904195     0.30600
H63         H  0.56121461  0.96430615  0.64965467     0.38300
H64         H  0.48034866  0.89072573  0.79403057     0.30100
H65         H  0.45585174  0.88971127  0.65576942     0.30200
H66         H  0.52559858  0.82179579  0.71923000     0.30400
Zr67       Zr  0.47777049  0.21581199  0.76110952     2.17500
O68         O  0.47040608  0.26256982  0.75898231    -0.51900
O69         O  0.49905317  0.21870170  0.80381820    -0.75100
O70         O  0.44424674  0.23759093  0.78399821    -0.81900
O71         O  0.52211513  0.22056853  0.71089899    -0.83600
O72         O  0.41096372  0.20861347  0.78753885    -0.79300
O73         O  0.51797776  0.23631708  0.75064856    -0.90900
O74         O  0.50160349  0.17830886  0.82124708    -0.76900
O75         O  0.45516219  0.18351952  0.78485527    -0.86400
O76         O  0.50844707  0.18146522  0.76468657    -0.86100
O77         O  0.44040327  0.20614228  0.73412138    -0.72800
O78         O  0.48623363  0.20428899  0.71647168    -0.84900
Zr79       Zr  0.45836100  0.12375732  0.71937935     2.26400
Zr80       Zr  0.41868196  0.17284245  0.75822080     2.06300
Zr81       Zr  0.51795143  0.17051101  0.72015878     2.10000
Zr82       Zr  0.48476434  0.14882332  0.78855399     1.78800
O83         O  0.53824252  0.16231404  0.67814507    -0.93700
O84         O  0.45677322  0.14415808  0.82671226    -0.41600
O85         O  0.49378252  0.13942653  0.74439462    -0.78200
O86         O  0.44703220  0.13600381  0.76338446    -0.96900
O87         O  0.42793089  0.15825841  0.71527827    -0.90200
O88         O  0.48125909  0.15570951  0.69394824    -0.93000
C89         C  0.50519762  0.20291927  0.82235832     1.00700
C90         C  0.52205140  0.24050452  0.72675443     1.13700
C91         C  0.42262604  0.22985707  0.79331904     1.04400
O92         O  0.39428750  0.15390036  0.79432431    -0.95200
O93         O  0.39045536  0.13939806  0.74234744    -0.90900
O94         O  0.41577492  0.10584957  0.72936057    -0.84100
C95         C  0.39361462  0.11611371  0.73442429     1.11100
O96         O  0.43530415  0.20830067  0.64918168    -0.97200
Zr97       Zr  0.44983638  0.19016562  0.69073105     1.88900
O98         O  0.44126801  0.12040229  0.67517457    -0.73800
O99         O  0.38080099  0.19715233  0.74300607    -0.53100
O100        O  0.42317878  0.22938524  0.68801308    -0.97700
O101        O  0.48389910  0.19939139  0.65873630    -0.55000
O102        O  0.41933749  0.15778735  0.67225766    -0.74300
C103        C  0.42155567  0.13346646  0.66709643     0.98000
O104        O  0.45947211  0.07720690  0.71084632    -0.63100
O105        O  0.56293137  0.17789024  0.73345801    -0.57900
O106        O  0.49653334  0.09615889  0.72620463    -0.94600
O107        O  0.53179248  0.12288580  0.73039413    -0.93000
O108        O  0.52749678  0.13075300  0.79877476    -0.93400
O109        O  0.48309749  0.10320885  0.80139845    -0.92200
C110        C  0.52083119  0.09969552  0.73128346     1.16900
H111        H  0.52417112  0.18662177  0.77359668     0.32800
H112        H  0.43804821  0.12198922  0.77221977     0.43700
H113        H  0.48652609  0.14892317  0.67726150     0.37200
H114        H  0.42929357  0.22126033  0.73367806     0.33700
H115        H  0.45193887  0.16204860  0.83171152     0.25500
H116        H  0.37891391  0.19223249  0.72451711     0.31400
H117        H  0.43546890  0.24407946  0.68987445     0.37300
H118        H  0.52962683  0.13322102  0.81777005     0.31800
H119        H  0.56294446  0.19557993  0.74091378     0.30600
H120        H  0.55520835  0.17141432  0.67899339     0.32300
H121        H  0.48375246  0.18450563  0.64665987     0.31300
H122        H  0.48738229  0.10282494  0.82022832     0.35300
H123        H  0.45317204  0.06881873  0.72706191     0.28000
H124        H  0.48631002  0.27096407  0.76601240     0.32300
H125        H  0.43336585  0.19323946  0.63745997     0.35100
H126        H  0.56550255  0.16621903  0.74864896     0.27700
H127        H  0.44540985  0.07406060  0.69798814     0.40600
H128        H  0.37753444  0.16348546  0.79447524     0.30600
H129        H  0.44037188  0.13651506  0.82001921     0.38300
H130        H  0.50070455  0.19792869  0.66811858     0.30100
H131        H  0.36576075  0.18884844  0.75183759     0.30200
H132        H  0.47003705  0.26700155  0.74026942     0.30400
Zr133      Zr  0.47725650  0.37028098  0.79389938     2.17500
O134        O  0.47121468  0.32343358  0.78976940    -0.51900
O135        O  0.43329521  0.36703266  0.81326969    -0.75100
O136        O  0.48350466  0.35112952  0.83686191    -0.81900
O137        O  0.49649439  0.37297533  0.72568421    -0.83600
O138        O  0.48597782  0.38658474  0.86179051    -0.79300
O139        O  0.47802405  0.34472386  0.75428862    -0.90900
O140        O  0.42685805  0.40521503  0.83336880    -0.76900
O141        O  0.47727858  0.40388612  0.82131802    -0.86400
O142        O  0.45480023  0.40499109  0.77172882    -0.86100
O143        O  0.52240162  0.37760389  0.80600540    -0.72800
O144        O  0.50566455  0.38727363  0.76105320    -0.84900
Zr145      Zr  0.52219542  0.46146220  0.78713240     2.26400
Zr146      Zr  0.51782205  0.41050294  0.83850507     2.06300
Zr147      Zr  0.48431891  0.42124733  0.73810847     2.10000
Zr148      Zr  0.45121890  0.43598187  0.80638651     1.78800
O149        O  0.49840422  0.42987832  0.69359862    -0.93700
O150        O  0.43952484  0.45930492  0.84577509    -0.41600
O151        O  0.47874704  0.45193945  0.77227814    -0.78200
O152        O  0.49458535  0.44693172  0.82177648    -0.96900
O153        O  0.54566471  0.42629254  0.80522661    -0.90200
O154        O  0.52772064  0.43182478  0.75205640    -0.93000
C155        C  0.42269439  0.38078114  0.83130182     1.00700
C156        C  0.49184489  0.34892500  0.73392359     1.13700
C157        C  0.48097912  0.36267631  0.85876042     1.04400
O158        O  0.51762217  0.42491947  0.88357293    -0.95200
O159        O  0.55128335  0.44216645  0.84913286    -0.90900
O160        O  0.54861665  0.47675197  0.82152439    -0.84100
C161        C  0.55884124  0.46437078  0.84050061     1.11100
O162        O  0.58795984  0.37004689  0.76047597    -0.97200
Zr163      Zr  0.54985483  0.39615406  0.77160034     1.88900
O164        O  0.56570183  0.47057324  0.77165789    -0.73800
O165        O  0.54696990  0.37693830  0.85563597    -0.53100
O166        O  0.57449143  0.36699844  0.80004934    -0.97700
O167        O  0.54962290  0.38125332  0.72642414    -0.55000
O168        O  0.58235791  0.43069501  0.76370129    -0.74300
C169        C  0.58422648  0.45565058  0.76420807     0.98000
O170        O  0.50235389  0.50087275  0.80441670    -0.63100
O171        O  0.44343042  0.41593716  0.71458559    -0.57900
O172        O  0.52146167  0.48107415  0.74525947    -0.94600
O173        O  0.48060099  0.47287433  0.73696537    -0.93000
O174        O  0.40934154  0.43423575  0.78375145    -0.93400
O175        O  0.43518797  0.48029827  0.80034603    -0.92200
C176        C  0.49922564  0.49011701  0.74065453     1.16900
H177        H  0.43822931  0.39927280  0.76482640     0.32800
H178        H  0.49338519  0.45977916  0.83531423     0.43700
H179        H  0.53790287  0.43848330  0.73765866     0.37200
H180        H  0.52938966  0.36160980  0.81304090     0.33700
H181        H  0.42038032  0.45708806  0.84742489     0.25500
H182        H  0.56331120  0.38623692  0.85989480     0.31400
H183        H  0.58275112  0.37855601  0.81293566     0.37300
H184        H  0.39611148  0.43390038  0.79777817     0.31800
H185        H  0.43938325  0.43349167  0.70779352     0.30600
H186        H  0.49324759  0.44813229  0.69017647     0.32300
H187        H  0.56756664  0.38366658  0.71977281     0.31300
H188        H  0.43465008  0.48315270  0.78127352     0.35300
H189        H  0.48329781  0.49819810  0.80278406     0.28000
H190        H  0.48535523  0.31533966  0.80019419     0.32300
H191        H  0.60226199  0.38270825  0.75760376     0.35100
H192        H  0.44815383  0.40579002  0.69895433     0.27700
H193        H  0.50568452  0.50111217  0.82336782     0.40600
H194        H  0.50437876  0.43884767  0.88402322     0.30600
H195        H  0.44692071  0.44873203  0.86014977     0.38300
H196        H  0.53957823  0.39462637  0.71674571     0.30100
H197        H  0.53956599  0.37210093  0.87279048     0.30200
H198        H  0.45504953  0.31936782  0.79951290     0.30400
Zr199      Zr  0.56268857  0.62805648  0.77317473     2.17500
O200        O  0.56687818  0.58417664  0.75609395    -0.51900
O201        O  0.58207567  0.62390865  0.81679264    -0.75100
O202        O  0.60788544  0.61563496  0.77674032    -0.81900
O203        O  0.49295891  0.62343216  0.76499080    -0.83600
O204        O  0.63085269  0.64855538  0.75836636    -0.79300
O205        O  0.52427598  0.60633521  0.78940845    -0.90900
O206        O  0.59725511  0.66442012  0.82493685    -0.76900
O207        O  0.59125812  0.66341679  0.77635534    -0.86400
O208        O  0.53953105  0.66016275  0.79757060    -0.86100
O209        O  0.57269804  0.63996432  0.72870433    -0.72800
O210        O  0.52564275  0.64069148  0.74764796    -0.84900
Zr211      Zr  0.54260618  0.71935160  0.72898766     2.26400
Zr212      Zr  0.60159353  0.67612082  0.73342906     2.06300
Zr213      Zr  0.50273402  0.67307849  0.77111044     2.10000
Zr214      Zr  0.56994416  0.69537632  0.79984208     1.78800
O215        O  0.45826412  0.68080651  0.75587770    -0.93700
O216        O  0.61273365  0.71596284  0.80477990    -0.41600
O217        O  0.53645702  0.70208429  0.77036729    -0.78200
O218        O  0.58015473  0.71070711  0.75635754    -0.96900
O219        O  0.56460692  0.68620653  0.70631673    -0.90200
O220        O  0.51124529  0.68525550  0.72637357    -0.93000
C221        C  0.59705100  0.63971733  0.82919437     1.00700
C222        C  0.50465053  0.60274962  0.77465497     1.13700
C223        C  0.62923013  0.62772012  0.77219065     1.04400
O224        O  0.63828680  0.70440547  0.74345434    -0.95200
O225        O  0.60685377  0.70706422  0.69919999    -0.90900
O226        O  0.58198369  0.74006051  0.71344888    -0.84100
C227        C  0.59802345  0.73012048  0.69746078     1.11100
O228        O  0.53019338  0.60512201  0.69646221    -0.97200
Zr229      Zr  0.53423381  0.65181017  0.70355820     1.88900
O230        O  0.52553573  0.72114189  0.68408741    -0.73800
O231        O  0.62768203  0.65196048  0.70226475    -0.53100
O232        O  0.56022851  0.64268302  0.66494623    -0.97700
O233        O  0.48900171  0.64030845  0.69441861    -0.55000
O234        O  0.51881887  0.68057864  0.66884779    -0.74300
C235        C  0.51786107  0.70536935  0.66633698     0.98000
O236        O  0.53803718  0.76632269  0.72285282    -0.63100
O237        O  0.47908347  0.66597369  0.81175723    -0.57900
O238        O  0.50588229  0.74263111  0.74570244    -0.94600
O239        O  0.50275305  0.72210245  0.78386838    -0.93000
O240        O  0.54662726  0.69613224  0.84120726    -0.93400
O241        O  0.56420382  0.73729027  0.82086036    -0.92200
C242        C  0.50389838  0.74376546  0.77021199     1.16900
H243        H  0.53436653  0.65371912  0.81455531     0.32800
H244        H  0.59134768  0.72574465  0.75769492     0.43700
H245        H  0.49551964  0.69068114  0.71741663     0.37200
H246        H  0.58173831  0.62589249  0.72024041     0.33700
H247        H  0.61739779  0.71368889  0.82335058     0.25500
H248        H  0.61915740  0.65524506  0.68525048     0.31400
H249        H  0.57006427  0.65888550  0.66142501     0.37300
H250        H  0.55967559  0.69061049  0.85436306     0.31800
H251        H  0.47493090  0.68361497  0.81806164     0.30600
H252        H  0.45257992  0.66392380  0.74870461     0.32300
H253        H  0.48428869  0.62724436  0.70784772     0.31300
H254        H  0.57856027  0.73889421  0.83368160     0.35300
H255        H  0.55333372  0.77442873  0.73125207     0.28000
H256        H  0.58344121  0.58403069  0.74617288     0.32300
H257        H  0.54319660  0.60058838  0.68302206     0.35100
H258        H  0.46202770  0.65869462  0.80641659     0.27700
H259        H  0.54062045  0.76949663  0.70394318     0.40600
H260        H  0.65395861  0.69390328  0.73966155     0.30600
H261        H  0.62502717  0.70439490  0.79549781     0.38300
H262        H  0.48947403  0.63059164  0.67787971     0.30100
H263        H  0.64441510  0.66154972  0.70120767     0.30200
H264        H  0.55319835  0.58306441  0.74255826     0.30400
Zr265      Zr  0.88097001  0.23484033  0.06641785     2.17500
O266        O  0.92636577  0.24685690  0.07370063    -0.51900
O267        O  0.88679747  0.19148539  0.08548789    -0.75100
O268        O  0.88959109  0.23649989  0.11304453    -0.81900
O269        O  0.88467527  0.23754007  0.99560541    -0.83600
O270        O  0.85825991  0.26075693  0.13219826    -0.79300
O271        O  0.91053635  0.22756790  0.03028089    -0.90900
O272        O  0.84749654  0.18401919  0.10410238    -0.76900
O273        O  0.84512709  0.23589430  0.09467512    -0.86400
O274        O  0.84934449  0.20681253  0.04662431    -0.86100
O275        O  0.86842774  0.27998121  0.06965978    -0.72800
O276        O  0.86671246  0.25516228  0.02703009    -0.84900
Zr277      Zr  0.78735081  0.27247994  0.04158073     2.26400
Zr278      Zr  0.83162082  0.27972571  0.09864261     2.06300
Zr279      Zr  0.83556900  0.22807046  0.00659066     2.10000
Zr280      Zr  0.81443040  0.20722726  0.07779395     1.78800
O281        O  0.83130133  0.23384909  0.95967277    -0.93700
O282        O  0.79565947  0.20457600  0.12138103    -0.41600
O283        O  0.80097936  0.22787352  0.03807952    -0.78200
O284        O  0.79848070  0.25137596  0.08194348    -0.96900
O285        O  0.82007971  0.29999602  0.05832071    -0.90200
O286        O  0.82122254  0.27268520  0.00975464    -0.93000
C287        C  0.87222334  0.17992972  0.10236901     1.00700
C288        C  0.90790266  0.23576631  0.00675691     1.13700
C289        C  0.87768191  0.24520657  0.13317635     1.04400
O290        O  0.80224091  0.27752336  0.13582663    -0.95200
O291        O  0.80177609  0.31597736  0.09473243    -0.90900
O292        O  0.76764242  0.29680402  0.07584509    -0.84100
C293        C  0.77869039  0.31674928  0.08524670     1.11100
O294        O  0.88537723  0.33016805  0.00974900    -0.97200
Zr295      Zr  0.85435111  0.29936758  0.02841135     1.88900
O296        O  0.78123175  0.31409834  0.02018754    -0.73800
O297        O  0.85738217  0.31372999  0.11901530    -0.53100
O298        O  0.87981875  0.33048636  0.05335734    -0.97700
O299        O  0.87011657  0.29295230  0.98402265    -0.55000
O300        O  0.82144190  0.33140936  0.01531509    -0.74300
C301        C  0.79647227  0.33253568  0.01317548     0.98000
O302        O  0.74044251  0.26813367  0.04821821    -0.63100
O303        O  0.84413993  0.18374280  0.99276881    -0.57900
O304        O  0.76907188  0.25827072  0.00165173    -0.94600
O305        O  0.78574749  0.21849476  0.00124880    -0.93000
O306        O  0.80950152  0.16601706  0.05541268    -0.93400
O307        O  0.77212865  0.18674829  0.08476662    -0.92200
C308        C  0.76557483  0.23412957  0.99926561     1.16900
H309        H  0.85615665  0.18959309  0.04368772     0.32800
H310        H  0.78352205  0.25136844  0.09337614     0.43700
H311        H  0.81532028  0.27946418  0.99317858     0.37200
H312        H  0.88268474  0.28943952  0.07738914     0.33700
H313        H  0.80459707  0.18988039  0.13013382     0.25500
H314        H  0.85713063  0.32822886  0.10627146     0.31400
H315        H  0.86688234  0.34338056  0.05933793     0.37300
H316        H  0.80016938  0.17048420  0.03907215     0.31800
H317        H  0.82868646  0.17377917  0.99867726     0.30600
H318        H  0.81307469  0.23968614  0.95706583     0.32300
H319        H  0.86119689  0.30649756  0.97349733     0.31300
H320        H  0.75971377  0.20128734  0.08701452     0.35300
H321        H  0.73196834  0.27291540  0.03151005     0.28000
H322        H  0.92567712  0.26234551  0.08505239     0.32300
H323        H  0.87451656  0.34440814  0.00243847     0.35100
H324        H  0.84254473  0.18423618  0.97357455     0.27700
H325        H  0.73737341  0.24933977  0.05050889     0.40600
H326        H  0.80778395  0.29192948  0.14721197     0.30600
H327        H  0.80226950  0.22018232  0.13032676     0.38300
H328        H  0.86193134  0.27668323  0.97801210     0.30100
H329        H  0.84647838  0.31989205  0.13361737     0.30200
H330        H  0.93357304  0.23293502  0.08494897     0.30400
Zr331      Zr  0.62411936  0.30189121  0.02024394     2.17500
O332        O  0.67134139  0.30331775  0.02623765    -0.51900
O333        O  0.62719975  0.32804766  0.05996635    -0.75100
O334        O  0.63750920  0.34288620  0.00148078    -0.81900
O335        O  0.63239103  0.23000834  0.01972067    -0.83600
O336        O  0.60002632  0.36351913  0.99172294    -0.79300
O337        O  0.65565032  0.26703875  0.02585169    -0.90900
O338        O  0.58576983  0.34050507  0.06812409    -0.76900
O339        O  0.58671115  0.32889692  0.02019027    -0.86400
O340        O  0.59460550  0.28045929  0.04903433    -0.86100
O341        O  0.61084604  0.30440654  0.97502534    -0.72800
O342        O  0.61263102  0.26190246  0.00039611    -0.84900
Zr343      Zr  0.53319048  0.26773637  0.98210030     2.26400
Zr344      Zr  0.57130478  0.32980662  0.97593350     2.06300
Zr345      Zr  0.58301887  0.23978159  0.02833581     2.10000
Zr346      Zr  0.55681212  0.30772712  0.04749431     1.78800
O347        O  0.57864843  0.19283744  0.02409498    -0.93700
O348        O  0.52359928  0.34199149  0.04420311    -0.41600
O349        O  0.55068256  0.27003196  0.02381863    -0.78200
O350        O  0.53967147  0.30892778  0.00337431    -0.96900
O351        O  0.56297585  0.28933061  0.95429038    -0.90200
O352        O  0.56997542  0.23989251  0.98281368    -0.93000
C353        C  0.61062699  0.34293832  0.07120808     1.00700
C354        C  0.65471070  0.24285453  0.02021345     1.13700
C355        C  0.62414667  0.36363006  0.99843048     1.04400
O356        O  0.54719748  0.37039392  0.97910169    -0.95200
O357        O  0.53117624  0.33210097  0.95058380    -0.90900
O358        O  0.50470475  0.29870375  0.96233310    -0.84100
C359        C  0.50982333  0.31912275  0.94929290     1.11100
O360        O  0.63860677  0.24859963  0.93118692    -0.97200
Zr361      Zr  0.60055922  0.26280157  0.95566209     1.88900
O362        O  0.53226439  0.24391506  0.94071276    -0.73800
O363        O  0.59055006  0.34477665  0.93514781    -0.53100
O364        O  0.62036203  0.29073262  0.92261453    -0.97700
O365        O  0.61798425  0.21876639  0.95849409    -0.55000
O366        O  0.57130284  0.24868080  0.92122831    -0.74300
C367        C  0.54743190  0.24143150  0.92097947     0.98000
O368        O  0.48587805  0.26434968  0.97579994    -0.63100
O369        O  0.59398257  0.22653521  0.07274637    -0.57900
O370        O  0.51637060  0.22970471  0.00257405    -0.94600
O371        O  0.53361950  0.23680056  0.04115320    -0.93000
O372        O  0.55219370  0.27607592  0.08276125    -0.93400
O373        O  0.52867229  0.31315329  0.08556838    -0.92200
C374        C  0.51300260  0.23248325  0.02665597     1.16900
H375        H  0.60202583  0.27831215  0.06624930     0.32800
H376        H  0.52346073  0.31847149  0.00284533     0.43700
H377        H  0.56589452  0.22272363  0.97645488     0.37200
H378        H  0.62409620  0.31323567  0.96498959     0.33700
H379        H  0.52573853  0.35302945  0.05973047     0.25500
H380        H  0.57567025  0.34612908  0.92287917     0.31400
H381        H  0.60791688  0.29043536  0.90786724     0.37300
H382        H  0.56617775  0.28024950  0.09542685     0.31800
H383        H  0.57697185  0.22489512  0.08171054     0.30600
H384        H  0.56174791  0.19025812  0.01513115     0.32300
H385        H  0.60652396  0.20840443  0.94700015     0.31300
H386        H  0.53874215  0.32433308  0.09758657     0.35300
H387        H  0.47748137  0.26969933  0.99217782     0.28000
H388        H  0.67831957  0.31361432  0.01148873     0.32300
H389        H  0.63164011  0.24165812  0.91463070     0.35100
H390        H  0.60036286  0.20848592  0.07122060     0.27700
H391        H  0.48142778  0.24577432  0.97361413     0.40600
H392        H  0.55234341  0.38046144  0.96346104     0.30600
H393        H  0.52970891  0.35345070  0.02985766     0.38300
H394        H  0.61382238  0.21247331  0.97624297     0.30100
H395        H  0.59569748  0.36297351  0.93840555     0.30200
H396        H  0.67436460  0.31406798  0.04185019     0.30400
Zr397      Zr  0.27899266  0.23831334  0.97267235     2.17500
O398        O  0.23288469  0.24779746  0.96688792    -0.51900
O399        O  0.27049426  0.19478565  0.98943831    -0.75100
O400        O  0.25183200  0.21867515  0.94026128    -0.81900
O401        O  0.28494807  0.28116255  0.02389557    -0.83600
O402        O  0.27845845  0.21435853  0.90553939    -0.79300
O403        O  0.26600073  0.24336913  0.01632776    -0.90900
O404        O  0.30884142  0.17337987  0.99275411    -0.76900
O405        O  0.30621634  0.21215851  0.94740512    -0.86400
O406        O  0.31444442  0.22786473  0.00092306    -0.86100
O407        O  0.28976697  0.26746472  0.93765394    -0.72800
O408        O  0.29798520  0.27997600  0.98407345    -0.84900
Zr409      Zr  0.37527220  0.26724579  0.95022568     2.26400
Zr410      Zr  0.31704479  0.24028500  0.91238533     2.06300
Zr411      Zr  0.33308307  0.26887791  0.01299237     2.10000
Zr412      Zr  0.34187128  0.20158811  0.97454486     1.78800
O413        O  0.34551017  0.30827592  0.03576262    -0.93700
O414        O  0.33700032  0.16472196  0.94546655    -0.41600
O415        O  0.36069070  0.24197645  0.98670306    -0.78200
O416        O  0.35455296  0.22716123  0.93747201    -0.96900
O417        O  0.33938011  0.27919478  0.92369103    -0.90200
O418        O  0.34882502  0.29499665  0.97679297    -0.93000
C419        C  0.28409150  0.17483056  0.99583166     1.00700
C420        C  0.26407340  0.26642838  0.02389835     1.13700
C421        C  0.25725301  0.20954935  0.91793379     1.04400
O422        O  0.33351116  0.20625114  0.88414431    -0.95200
O423        O  0.34682499  0.26097746  0.88387869    -0.90900
O424        O  0.38410672  0.25387607  0.90559485    -0.84100
C425        C  0.37135103  0.25816061  0.88441686     1.11100
O426        O  0.27587173  0.33473233  0.95647648    -0.97200
Zr427      Zr  0.31338640  0.30680625  0.94857917     1.88900
O428        O  0.38494582  0.31134896  0.93421815    -0.73800
O429        O  0.28882786  0.25813659  0.87846483    -0.53100
O430        O  0.28904468  0.31894498  0.90950966    -0.97700
O431        O  0.32316012  0.34658896  0.97221202    -0.55000
O432        O  0.34639290  0.32665199  0.91956679    -0.74300
C433        C  0.37150277  0.32588208  0.91869345     0.98000
O434        O  0.42104703  0.26023724  0.93886546    -0.63100
O435        O  0.32766902  0.25089483  0.05664032    -0.57900
O436        O  0.40525344  0.26171691  0.98744268    -0.94600
O437        O  0.38109830  0.25925710  0.02464863    -0.93000
O438        O  0.35999576  0.18475956  0.01511088    -0.93400
O439        O  0.38437115  0.18168152  0.96760192    -0.92200
C440        C  0.40345303  0.25786121  0.01220630     1.16900
H441        H  0.30894106  0.21851519  0.01632947     0.32800
H442        H  0.36588821  0.21661079  0.92693906     0.43700
H443        H  0.35880526  0.30972540  0.98269956     0.37200
H444        H  0.27410799  0.27175244  0.92804906     0.33700
H445        H  0.34948718  0.16792476  0.93109944     0.25500
H446        H  0.29104897  0.24647978  0.86342472     0.31400
H447        H  0.30202507  0.31893110  0.89522618     0.37300
H448        H  0.35914591  0.19956738  0.02728331     0.31800
H449        H  0.33561206  0.23338982  0.05582218     0.30600
H450        H  0.32883022  0.31727447  0.03898578     0.32300
H451        H  0.34147688  0.35095475  0.96774034     0.31300
H452        H  0.39431893  0.19452222  0.95715649     0.35300
H453        H  0.43120249  0.27381179  0.94779582     0.28000
H454        H  0.22452843  0.24349322  0.98370340     0.32300
H455        H  0.27942899  0.35117656  0.94705055     0.35100
H456        H  0.33981187  0.26101522  0.06754819     0.27700
H457        H  0.42628841  0.24359315  0.94723185     0.40600
H458        H  0.32210120  0.20692982  0.86861835     0.30600
H459        H  0.34429859  0.14971667  0.95518978     0.38300
H460        H  0.32366503  0.34140376  0.99075989     0.30100
H461        H  0.29720659  0.27464222  0.87303772     0.30200
H462        H  0.23160764  0.26681269  0.96461805     0.30400
Zr463      Zr  0.03380324  0.20911311  0.02562016     2.17500
O464        O  0.98614795  0.20783457  0.02598223    -0.51900
O465        O  0.02741330  0.22212854  0.07059453    -0.75100
O466        O  0.00570953  0.17289564  0.03322247    -0.81900
O467        O  0.03769543  0.25958575  0.98210542    -0.83600
O468        O  0.03341548  0.14111504  0.04542981    -0.79300
O469        O  0.01939938  0.25248654  0.02023751    -0.90900
O470        O  0.06670330  0.22571846  0.09026026    -0.76900
O471        O  0.06168839  0.18184906  0.04980396    -0.86400
O472        O  0.06965576  0.23620955  0.03643994    -0.86100
O473        O  0.04399265  0.17613161  0.99426776    -0.72800
O474        O  0.05123294  0.22246936  0.98370921    -0.84900
Zr475      Zr  0.12965431  0.18861317  0.99169063     2.26400
Zr476      Zr  0.07211453  0.14876841  0.01947235     2.06300
Zr477      Zr  0.08631583  0.25076429  0.99492582     2.10000
Zr478      Zr  0.09817778  0.20775595  0.06020344     1.78800
O479        O  0.09607304  0.27755408  0.95688165    -0.93700
O480        O  0.13771882  0.19195216  0.08169230    -0.41600
O481        O  0.11485720  0.22257016  0.01943031    -0.78200
O482        O  0.11043701  0.17263718  0.03177792    -0.96900
O483        O  0.09310381  0.16328954  0.98083379    -0.90200
O484        O  0.10229064  0.21694882  0.96630461    -0.93000
C485        C  0.04183703  0.22830498  0.08995500     1.00700
C486        C  0.01680202  0.25919164  0.99683244     1.13700
C487        C  0.01125852  0.15258282  0.04619716     1.04400
O488        O  0.08678804  0.11860222  0.05315308    -0.95200
O489        O  0.10212743  0.12017787  0.99914350    -0.90900
O490        O  0.13836962  0.14212872  0.98664709    -0.84100
C491        C  0.12466171  0.12127205  0.98859096     1.11100
O492        O  0.02949608  0.19279766  0.92523925    -0.97200
Zr493      Zr  0.06659750  0.18923519  0.95476059     1.88900
O494        O  0.13969682  0.17813537  0.94616143    -0.73800
O495        O  0.04735228  0.11497643  0.99743726    -0.53100
O496        O  0.04539411  0.14859723  0.94307795    -0.97700
O497        O  0.07055140  0.21926567  0.91802214    -0.55000
O498        O  0.10055406  0.16370353  0.93216824    -0.74300
C499        C  0.12568899  0.16383557  0.93112214     0.98000
O500        O  0.17322391  0.17507943  0.00462020    -0.63100
O501        O  0.08119747  0.29280474  0.01576682    -0.57900
O502        O  0.15900657  0.22603637  0.99869620    -0.94600
O503        O  0.13402637  0.26222612  0.00479266    -0.93000
O504        O  0.12118418  0.24675011  0.07393268    -0.93400
O505        O  0.09302556  0.18054510  0.09883336    -0.92200
C506        C  0.15656557  0.25016783  0.00508828     1.16900
H507        H  0.06442814  0.25096911  0.04668303     0.32800
H508        H  0.12250298  0.16105914  0.04047248     0.43700
H509        H  0.11151707  0.22394491  0.95143764     0.37200
H510        H  0.02830938  0.16694326  0.98951108     0.33700
H511        H  0.15009340  0.18755923  0.06763931     0.25500
H512        H  0.04803834  0.09984016  0.00937534     0.31400
H513        H  0.05860689  0.13494488  0.94664173     0.37300
H514        H  0.11202099  0.26117482  0.06495601     0.31800
H515        H  0.08121924  0.30552526  0.00123046     0.30600
H516        H  0.11178183  0.28757346  0.96183967     0.32300
H517        H  0.08785524  0.21557205  0.91034460     0.31300
H518        H  0.09181244  0.16263680  0.09210221     0.35300
H519        H  0.18513453  0.18455086  0.99277270     0.28000
H520        H  0.97982238  0.22538175  0.03041693     0.32300
H521        H  0.03497284  0.18434125  0.90886556     0.35100
H522        H  0.06300290  0.29291363  0.02219888     0.27700
H523        H  0.17584131  0.18292629  0.02192836     0.40600
H524        H  0.07438488  0.10385804  0.05230420     0.30600
H525        H  0.14552928  0.20692270  0.09079673     0.38300
H526        H  0.07229937  0.23667129  0.92586954     0.30100
H527        H  0.02892892  0.12067943  0.99784387     0.30200
H528        H  0.98050199  0.20470228  0.00789078     0.30400
Zr529      Zr  0.72976495  0.49081451  0.97721274     2.17500
O530        O  0.71845482  0.49831207  0.02268189    -0.51900
O531        O  0.74947732  0.44813935  0.98398022    -0.75100
O532        O  0.69581598  0.46534868  0.99698499    -0.81900
O533        O  0.77449941  0.54245073  0.97893396    -0.83600
O534        O  0.66092361  0.46837778  0.96988617    -0.79300
O535        O  0.76862319  0.50435616  0.99919663    -0.90900
O536        O  0.75270615  0.42895892  0.94447767    -0.76900
O537        O  0.71016207  0.46544667  0.94447966    -0.86400
O538        O  0.76261400  0.48704056  0.94443514    -0.86100
O539        O  0.69213369  0.51576627  0.96399766    -0.72800
O540        O  0.73832064  0.53440622  0.96230691    -0.84900
Zr541      Zr  0.71300928  0.52906484  0.88232764     2.26400
Zr542      Zr  0.67344607  0.49006383  0.93030778     2.06300
Zr543      Zr  0.77133334  0.53087052  0.92979480     2.10000
Zr544      Zr  0.74197278  0.46160452  0.91154281     1.78800
O545        O  0.79168214  0.57292750  0.92205737    -0.93700
O546        O  0.71674167  0.42325640  0.89998086    -0.41600
O547        O  0.74996344  0.50516693  0.89787520    -0.78200
O548        O  0.70417885  0.48453967  0.89563230    -0.96900
O549        O  0.68143685  0.53332475  0.91567611    -0.90200
O550        O  0.73408451  0.55553271  0.91414207    -0.93000
C551        C  0.75494974  0.42874777  0.96938022     1.00700
C552        C  0.77356110  0.52844027  0.00040530     1.13700
C553        C  0.67242072  0.45983151  0.99034320     1.06800
O554        O  0.65968548  0.45063020  0.90827388    -0.95200
O555        O  0.64976330  0.51401032  0.89775184    -0.90900
O556        O  0.67495872  0.50963416  0.86276528    -0.84100
C557        C  0.65272648  0.50917687  0.87372387     1.11100
O558        O  0.70253614  0.57579125  0.99165462    -0.97200
Zr559      Zr  0.70154774  0.55893936  0.94760054     1.88900
O560        O  0.69043928  0.57093883  0.87629441    -0.73800
O561        O  0.62789334  0.49139079  0.94378940    -0.53100
O562        O  0.65954350  0.56896584  0.96720628    -0.97700
O563        O  0.72420737  0.60053444  0.94870452    -0.55000
O564        O  0.67478442  0.58247484  0.91571688    -0.74300
C565        C  0.67530675  0.58457243  0.89078477     0.98000
O566        O  0.71285132  0.53460885  0.83543467    -0.63100
O567        O  0.81648939  0.51834404  0.93774099    -0.57900
O568        O  0.75120848  0.53263176  0.85508904    -0.94600
O569        O  0.78557625  0.52407199  0.88186367    -0.93000
O570        O  0.78744204  0.45366290  0.90047229    -0.93400
O571        O  0.74874450  0.44669020  0.86715694    -0.92200
C572        C  0.77518395  0.52664850  0.85852128     1.16900
H573        H  0.77817724  0.47869857  0.95106917     0.32800
H574        H  0.69693731  0.47419081  0.88177136     0.43700
H575        H  0.73905639  0.57210479  0.90675262     0.37200
H576        H  0.68009569  0.51702941  0.97838338     0.33700
H577        H  0.72944053  0.40877491  0.90041040     0.25500
H578        H  0.61750946  0.48887410  0.92773494     0.31400
H579        H  0.64750879  0.55578301  0.96011535     0.37300
H580        H  0.79341222  0.46996275  0.89198447     0.31800
H581        H  0.81601170  0.50781841  0.95395264     0.30600
H582        H  0.81019610  0.56888948  0.91833550     0.32300
H583        H  0.72051249  0.60883459  0.93164820     0.31300
H584        H  0.74575660  0.46227976  0.85622715     0.35300
H585        H  0.70997578  0.51693013  0.82853716     0.28000
H586        H  0.73454932  0.49605755  0.03311116     0.32300
H587        H  0.69638318  0.56117016  0.00270093     0.35100
H588        H  0.82048144  0.50573336  0.92385454     0.27700
H589        H  0.69618019  0.54369172  0.83227200     0.40600
H590        H  0.64094197  0.45327127  0.90450842     0.30600
H591        H  0.70531720  0.41999423  0.91518626     0.38300
H592        H  0.74301724  0.59616938  0.94817142     0.30100
H593        H  0.62481996  0.50968991  0.94861496     0.30200
H594        H  0.71416342  0.51699295  0.02362851     0.30400
Zr595      Zr  0.80642862  0.53491678  0.47236538     2.17500
O596        O  0.80977739  0.55086851  0.51700061    -0.51900
O597        O  0.78638756  0.57807087  0.47685025    -0.75100
O598        O  0.85040996  0.54536267  0.48434859    -0.81900
O599        O  0.74914789  0.49121667  0.48082139    -0.83600
O600        O  0.86785496  0.56462369  0.44998793    -0.79300
O601        O  0.78257648  0.50998942  0.50300775    -0.90900
O602        O  0.77921280  0.59382730  0.43623114    -0.76900
O603        O  0.82543117  0.55601333  0.43616897    -0.86400
O604        O  0.77159231  0.54026872  0.44184715    -0.86100
O605        O  0.84101277  0.50558190  0.45918361    -0.72800
O606        O  0.79142549  0.49219987  0.46137568    -0.84900
Zr607      Zr  0.81286377  0.48841420  0.38107324     2.26400
Zr608      Zr  0.85957483  0.52774636  0.42206688     2.06300
Zr609      Zr  0.75698420  0.49729136  0.43066025     2.10000
Zr610      Zr  0.79226335  0.56066528  0.40515480     1.78800
O611        O  0.73046180  0.45833819  0.42661196    -0.93700
O612        O  0.82405977  0.59215125  0.38909549    -0.41600
O613        O  0.78017196  0.51747193  0.39607440    -0.78200
O614        O  0.82676231  0.53267838  0.38866623    -0.96900
O615        O  0.84520926  0.48476800  0.41343368    -0.90200
O616        O  0.79048578  0.46711685  0.41631389    -0.93000
C617        C  0.77816317  0.59582961  0.46110344     1.00700
C618        C  0.76164790  0.49684596  0.50262364     1.13700
C619        C  0.86108152  0.56499660  0.47389053     1.04400
O620        O  0.88308948  0.55521161  0.39132883    -0.95200
O621        O  0.88262993  0.49885946  0.39344536    -0.90900
O622        O  0.85499553  0.49182385  0.36019030    -0.84100
C623        C  0.87734527  0.48952133  0.37098924     1.11100
O624        O  0.81817552  0.45108319  0.49346242    -0.97200
Zr625      Zr  0.82486438  0.46284171  0.44794174     1.88900
O626        O  0.82844070  0.44356186  0.37933018    -0.73800
O627        O  0.90043347  0.52060339  0.44530314    -0.53100
O628        O  0.86415548  0.44847230  0.47053773    -0.97700
O629        O  0.80255625  0.42106235  0.44856083    -0.55000
O630        O  0.85102819  0.43825537  0.41635509    -0.74300
C631        C  0.84740073  0.43322054  0.39213628     0.98000
O632        O  0.80777751  0.48324617  0.33411533    -0.63100
O633        O  0.71509571  0.51895347  0.43591873    -0.57900
O634        O  0.77336828  0.48609956  0.35575609    -0.94600
O635        O  0.74354334  0.50506458  0.38213004    -0.93000
O636        O  0.74805857  0.56187125  0.38777211    -0.93400
O637        O  0.78232747  0.58708347  0.36687354    -0.92200
C638        C  0.75228047  0.49891568  0.35878964     1.16900
H639        H  0.75704137  0.55001957  0.44861473     0.32800
H640        H  0.83420144  0.54002085  0.37299742     0.43700
H641        H  0.78329928  0.45062661  0.41103090     0.37200
H642        H  0.85402794  0.50264563  0.47253028     0.33700
H643        H  0.81980451  0.60847575  0.39819174     0.25500
H644        H  0.90034017  0.50188180  0.44977249     0.31400
H645        H  0.87794711  0.46059745  0.46463397     0.37300
H646        H  0.73697959  0.56642005  0.40286902     0.31800
H647        H  0.70364764  0.51092663  0.42268751     0.30600
H648        H  0.71891276  0.45860295  0.44204109     0.32300
H649        H  0.78727759  0.42363764  0.45999464     0.31300
H650        H  0.77483476  0.60339209  0.37374532     0.35300
H651        H  0.81995181  0.49570850  0.32586563     0.28000
H652        H  0.79169245  0.55343558  0.52332523     0.32300
H653        H  0.82257047  0.46703909  0.50314581     0.35100
H654        H  0.70831852  0.51247149  0.45276105     0.27700
H655        H  0.81514535  0.46592606  0.33026170     0.40600
H656        H  0.89684607  0.56356507  0.40189900     0.30600
H657        H  0.84095891  0.58665427  0.39667195     0.38300
H658        H  0.81429181  0.40937364  0.45864134     0.30100
H659        H  0.91411222  0.52236826  0.43180806     0.30200
H660        H  0.81678424  0.53629794  0.52754705     0.30400
Zr661      Zr  0.74023963  0.53162669  0.73624390     2.17500
O662        O  0.73674848  0.51278626  0.78016055    -0.51900
O663        O  0.69587189  0.51310247  0.73819428    -0.75100
O664        O  0.72695297  0.56313624  0.76819685    -0.81900
O665        O  0.79915722  0.49986891  0.73067344    -0.83600
O666        O  0.71849979  0.59959947  0.74479135    -0.79300
O667        O  0.76148222  0.49247623  0.74971897    -0.90900
O668        O  0.68041452  0.50621317  0.69762841    -0.76900
O669        O  0.71164399  0.55477705  0.70829971    -0.86400
O670        O  0.73818954  0.50530815  0.69837199    -0.86100
O671        O  0.76312959  0.57253564  0.73019641    -0.72800
O672        O  0.78088971  0.53349752  0.71574739    -0.84900
Zr673      Zr  0.77423461  0.56829708  0.64474700     2.26400
Zr674      Zr  0.73424426  0.59493518  0.70102835     2.06300
Zr675      Zr  0.78277626  0.50372407  0.68306867     2.10000
Zr676      Zr  0.71044319  0.52972342  0.66964973     1.78800
O677        O  0.82450653  0.48415840  0.67152514    -0.93700
O678        O  0.66843626  0.55145430  0.66499948    -0.41600
O679        O  0.75451141  0.52792492  0.65585434    -0.78200
O680        O  0.73001354  0.57169510  0.66101587    -0.96900
O681        O  0.77712100  0.59399664  0.68274888    -0.90200
O682        O  0.80389573  0.54440991  0.67193468    -0.93000
C683        C  0.67868056  0.50409172  0.72240645     1.00700
C684        C  0.78576065  0.49548500  0.75188365     1.13700
C685        C  0.71819521  0.58623508  0.76588854     1.04400
O686        O  0.68968768  0.60860214  0.69173314    -0.95200
O687        O  0.74140179  0.62863735  0.66983635    -0.90900
O688        O  0.75528679  0.60980681  0.63261427    -0.84100
C689        C  0.74745570  0.62933338  0.64579038     1.11100
O690        O  0.83056911  0.56700866  0.75055790    -0.97200
Zr691      Zr  0.80572260  0.57085775  0.71018865     1.88900
O692        O  0.81711865  0.58942221  0.64066683    -0.73800
O693        O  0.74334695  0.63803706  0.71800899    -0.53100
O694        O  0.80857576  0.61014948  0.73653731    -0.97700
O695        O  0.84943183  0.55243872  0.70611294    -0.55000
O696        O  0.82640059  0.60325932  0.68121297    -0.74300
C697        C  0.82955649  0.60425740  0.65640025     0.98000
O698        O  0.78307214  0.57523210  0.59844744    -0.63100
O699        O  0.77112111  0.45815448  0.68924265    -0.57900
O700        O  0.76855977  0.53401205  0.61291065    -0.94600
O701        O  0.77495853  0.49525793  0.63358415    -0.93000
O702        O  0.70581600  0.48767186  0.64877329    -0.93400
O703        O  0.69787859  0.53158249  0.62395793    -0.92200
C704        C  0.76952564  0.50909655  0.61249572     1.16900
H705        H  0.73124851  0.48824817  0.70223119     0.32800
H706        H  0.71902022  0.58120126  0.64900056     0.43700
H707        H  0.82057432  0.54195344  0.66350383     0.37200
H708        H  0.76533295  0.58176912  0.74636284     0.33700
H709        H  0.66282342  0.55522015  0.68302972     0.25500
H710        H  0.72616866  0.64515825  0.72312335     0.31400
H711        H  0.82495465  0.61886925  0.73108742     0.37300
H712        H  0.72120453  0.47753717  0.65459559     0.31800
H713        H  0.76968866  0.45120187  0.67140958     0.30600
H714        H  0.83110990  0.49482312  0.65684669     0.32300
H715        H  0.85611095  0.55861707  0.68903775     0.31300
H716        H  0.70749644  0.54668974  0.61678091     0.35300
H717        H  0.78464626  0.59425053  0.59602008     0.28000
H718        H  0.71793873  0.50935985  0.78284434     0.32300
H719        H  0.83420698  0.54828798  0.75280229     0.35100
H720        H  0.78703659  0.44990501  0.69648942     0.27700
H721        H  0.80102637  0.56869456  0.59566340     0.40600
H722        H  0.67894619  0.59979601  0.70516874     0.30600
H723        H  0.67254083  0.56867133  0.65737668     0.38300
H724        H  0.84665040  0.53360924  0.70391582     0.30100
H725        H  0.75293860  0.63514885  0.73452265     0.30200
H726        H  0.74105239  0.52638528  0.79291833     0.30400
Zr727      Zr  0.71941147  0.46591212  0.12218593     2.17500
O728        O  0.69892446  0.48307757  0.08276728    -0.51900
O729        O  0.67789496  0.44191632  0.11546716    -0.75100
O730        O  0.73234396  0.43253075  0.09287944    -0.81900
O731        O  0.74624832  0.53199424  0.13051919    -0.83600
O732        O  0.72489757  0.40218708  0.12319490    -0.79300
O733        O  0.72929213  0.50579901  0.09915351    -0.90900
O734        O  0.66610984  0.42454276  0.15420028    -0.76900
O735        O  0.71118515  0.43132556  0.15124500    -0.86400
O736        O  0.69930716  0.48659822  0.15874598    -0.86100
O737        O  0.76219458  0.44651930  0.13108165    -0.72800
O738        O  0.75111828  0.49337423  0.14195574    -0.84900
Zr739      Zr  0.76299246  0.45925088  0.21543020     2.26400
Zr740      Zr  0.75192814  0.41179842  0.16086828     2.06300
Zr741      Zr  0.73211295  0.51556971  0.17704768     2.10000
Zr742      Zr  0.69030156  0.45012732  0.18688516     1.78800
O743        O  0.75077679  0.55829562  0.18492868    -0.93700
O744        O  0.67587530  0.41278455  0.21260100    -0.41600
O745        O  0.72196633  0.47946330  0.20482237    -0.78200
O746        O  0.73106849  0.42895076  0.19888305    -0.96900
O747        O  0.78308531  0.44129691  0.17837438    -0.90200
O748        O  0.77291750  0.49578653  0.18806400    -0.93000
C749        C  0.66405117  0.42593492  0.12916094     1.00700
C750        C  0.74228493  0.52591932  0.10577070     1.13700
C751        C  0.73025202  0.40886458  0.09980034     1.04400
O752        O  0.73472131  0.37190181  0.17987438    -0.95200
O753        O  0.78845333  0.39940921  0.18817847    -0.90900
O754        O  0.77435417  0.41496471  0.22610981    -0.84100
C755        C  0.79105573  0.40267012  0.21269713     1.11100
O756        O  0.81050512  0.47689573  0.10672512    -0.97200
Zr757      Zr  0.79295552  0.47625046  0.15080626     1.88900
O758        O  0.80647181  0.47771346  0.22327491    -0.73800
O759        O  0.77795693  0.38252905  0.13455250    -0.53100
O760        O  0.82969835  0.44727347  0.14329842    -0.97700
O761        O  0.80546633  0.52025036  0.13838657    -0.55000
O762        O  0.82543226  0.48513503  0.18413271    -0.74300
C763        C  0.82575078  0.48534741  0.20913907     0.98000
O764        O  0.77519696  0.44916333  0.26044232    -0.63100
O765        O  0.69258431  0.54163204  0.17371618    -0.57900
O766        O  0.73840821  0.48209028  0.24679558    -0.94600
O767        O  0.73233395  0.52153739  0.22789949    -0.93000
O768        O  0.64848578  0.47140742  0.17932808    -0.93400
O769        O  0.67121406  0.46426136  0.22774537    -0.92200
C770        C  0.73333869  0.50609670  0.24859767     1.16900
H771        H  0.68372158  0.49573629  0.15340521     0.32800
H772        H  0.72775623  0.41526358  0.21138156     0.43700
H773        H  0.78337866  0.50907488  0.19614710     0.37200
H774        H  0.77080013  0.43951114  0.11599628     0.33700
H775        H  0.68367417  0.41502105  0.23009181     0.25500
H776        H  0.79631553  0.38769258  0.13768282     0.31400
H777        H  0.82314507  0.42969719  0.14764167     0.37300
H778        H  0.63532110  0.45871410  0.18548841     0.31800
H779        H  0.68390617  0.53923702  0.19073530     0.30600
H780        H  0.76520529  0.55512549  0.19739828     0.32300
H781        H  0.82428179  0.51912056  0.13427787     0.31300
H782        H  0.67125098  0.48344623  0.22650399     0.35300
H783        H  0.75914104  0.44274992  0.26907157     0.28000
H784        H  0.68011429  0.48431076  0.08681436     0.32300
H785        H  0.79574580  0.47205710  0.09528849     0.35100
H786        H  0.69871673  0.55989312  0.17379625     0.27700
H787        H  0.77909161  0.46592185  0.26891227     0.40600
H788        H  0.72425538  0.36408111  0.16574608     0.30600
H789        H  0.65692419  0.41550183  0.21521259     0.38300
H790        H  0.80478750  0.53019391  0.15480682     0.30100
H791        H  0.77621267  0.36536147  0.14310330     0.30200
H792        H  0.70021592  0.46892132  0.06987034     0.30400
Zr793      Zr  0.27182110  0.01960772  0.78518949     2.17500
O794        O  0.27718795  0.00685457  0.73945943    -0.51900
O795        O  0.31697726  0.00243880  0.78299731    -0.75100
O796        O  0.28559967  0.05399357  0.75686937    -0.81900
O797        O  0.21386679  0.98739619  0.78635209    -0.83600
O798        O  0.30400712  0.08147844  0.78550253    -0.79300
O799        O  0.25130566  0.98306056  0.76555571    -0.90900
O800        O  0.33512243  0.00008046  0.82306447    -0.76900
O801        O  0.29939265  0.04109088  0.81500654    -0.86400
O802        O  0.27416677  0.99054307  0.82136014    -0.86100
O803        O  0.24819893  0.05980391  0.79315317    -0.72800
O804        O  0.23067678  0.01928141  0.80471308    -0.84900
Zr805      Zr  0.23571120  0.04832051  0.87806207     2.26400
Zr806      Zr  0.27658757  0.08047789  0.82391344     2.06300
Zr807      Zr  0.22914754  0.98709360  0.83516067     2.10000
Zr808      Zr  0.30065137  0.01371810  0.85222530     1.78800
O809        O  0.18732669  0.96683881  0.84532393    -0.93700
O810        O  0.33991923  0.03701651  0.86510312    -0.41600
O811        O  0.25648417  0.00906083  0.86522167    -0.78200
O812        O  0.27985407  0.05435895  0.86261983    -0.96900
O813        O  0.23370785  0.07596102  0.84119233    -0.90200
O814        O  0.20691569  0.02605355  0.84883764    -0.93000
C815        C  0.33631181  0.99749896  0.79832987     1.00700
C816        C  0.22683782  0.98518765  0.76440156     1.13700
C817        C  0.30217318  0.07118297  0.76294202     1.04400
O818        O  0.31637383  0.09790686  0.84289012    -0.95200
O819        O  0.26140977  0.11359028  0.85311115    -0.90900
O820        O  0.23899206  0.09475488  0.88629846    -0.84100
C821        C  0.24770209  0.11472408  0.87391150     1.11100
O822        O  0.18027974  0.04764370  0.77290963    -0.97200
Zr823      Zr  0.20508517  0.05569656  0.81264344     1.88900
O824        O  0.19235155  0.06689136  0.88454198    -0.73800
O825        O  0.26937945  0.12021960  0.79879920    -0.53100
O826        O  0.20276702  0.09705650  0.78902581    -0.97700
O827        O  0.16002822  0.04043409  0.81548025    -0.55000
O828        O  0.18530606  0.08586987  0.84537662    -0.74300
C829        C  0.18147643  0.08444003  0.87029675     0.98000
O830        O  0.24921607  0.05372524  0.92327378    -0.63100
O831        O  0.23916848  0.94149203  0.82730106    -0.57900
O832        O  0.23012756  0.01268153  0.90915747    -0.94600
O833        O  0.23663523  0.97659587  0.88450855    -0.93000
O834        O  0.30645492  0.96898739  0.86671770    -0.93400
O835        O  0.31170346  0.01220174  0.89829654    -0.92200
C836        C  0.23535836  0.98834637  0.90728530     1.16900
H837        H  0.28171966  0.97401877  0.81662791     0.32800
H838        H  0.28993277  0.06338302  0.87560034     0.43700
H839        H  0.19009953  0.02247970  0.85664002     0.37200
H840        H  0.24655282  0.07020231  0.77748094     0.33700
H841        H  0.35320576  0.02337550  0.86832260     0.25500
H842        H  0.26443451  0.11458175  0.78108890     0.31400
H843        H  0.21523604  0.10857415  0.79807600     0.37300
H844        H  0.28873770  0.96312305  0.87182451     0.31800
H845        H  0.24537829  0.94091378  0.80903317     0.30600
H846        H  0.19177207  0.95187879  0.85676494     0.32300
H847        H  0.15395383  0.04536378  0.83309460     0.31300
H848        H  0.29756564  0.02206875  0.90685674     0.35300
H849        H  0.26798543  0.05823834  0.92237892     0.28000
H850        H  0.29614522  0.00808595  0.73578812     0.32300
H851        H  0.17422053  0.06478745  0.76648189     0.35100
H852        H  0.25487273  0.93787923  0.83794355     0.27700
H853        H  0.24055481  0.06971041  0.92941371     0.40600
H854        H  0.31958805  0.11423685  0.83315724     0.30600
H855        H  0.34583092  0.04603922  0.84909788     0.38300
H856        H  0.16135500  0.02131019  0.81615661     0.30100
H857        H  0.28682243  0.12823660  0.79671897     0.30200
H858        H  0.26922099  0.02044757  0.72832968     0.30400
Zr859      Zr  0.27665753  0.96134464  0.38205285     2.17500
O860        O  0.29311331  0.96348457  0.42672011    -0.51900
O861        O  0.32053279  0.94296646  0.38976084    -0.75100
O862        O  0.26136284  0.92134998  0.40192813    -0.81900
O863        O  0.25625356  0.03283757  0.38232372    -0.83600
O864        O  0.27567623  0.89919347  0.36824558    -0.79300
O865        O  0.26116202  0.99717836  0.40845294    -0.90900
O866        O  0.33816306  0.93314274  0.35086217    -0.76900
O867        O  0.29092001  0.93362204  0.34828716    -0.86400
O868        O  0.29936794  0.98987571  0.35243374    -0.86100
O869        O  0.23701548  0.94216521  0.36404923    -0.72800
O870        O  0.24614856  0.99224453  0.36452532    -0.84900
Zr871      Zr  0.24375583  0.97066082  0.28557386     2.26400
Zr872      Zr  0.25278020  0.91443022  0.33020159     2.06300
Zr873      Zr  0.26775520  0.02049567  0.33448753     2.10000
Zr874      Zr  0.31417158  0.96057886  0.31938546     1.78800
O875        O  0.24235045  0.05995826  0.32776216    -0.93700
O876        O  0.33601664  0.92833845  0.29265410    -0.41600
O877        O  0.28271175  0.99072008  0.30225910    -0.78200
O878        O  0.27641516  0.94027112  0.29949803    -0.96900
O879        O  0.22085472  0.94478396  0.31573625    -0.90200
O880        O  0.22911366  0.00076077  0.31743487    -0.93000
C881        C  0.33721783  0.93055062  0.37582810     1.00700
C882        C  0.25499895  0.02110799  0.40525744     1.13700
C883        C  0.26436270  0.89977381  0.39024867     1.04400
O884        O  0.27417105  0.87656198  0.31175572    -0.95200
O885        O  0.22768048  0.90173331  0.29239412    -0.90900
O886        O  0.22943505  0.93386315  0.26211702    -0.84100
C887        C  0.22189864  0.91175647  0.27016523     1.11100
O888        O  0.18989566  0.97272983  0.39232504    -0.97200
Zr889      Zr  0.20677680  0.97407307  0.34801413     1.88900
O890        O  0.19840441  0.97927215  0.27489297    -0.73800
O891        O  0.22076979  0.88491679  0.34927151    -0.53100
O892        O  0.17227597  0.94199272  0.35357759    -0.97700
O893        O  0.18720487  0.01506122  0.36107813    -0.55000
O894        O  0.17601840  0.98270741  0.31265609    -0.74300
C895        C  0.17748244  0.98393385  0.28767900     0.98000
O896        O  0.26100603  0.96717835  0.24156571    -0.63100
O897        O  0.30337912  0.05088591  0.34148684    -0.57900
O898        O  0.24017574  0.01222558  0.26683243    -0.94600
O899        O  0.27584853  0.02906483  0.28451409    -0.93000
O900        O  0.34987581  0.99000631  0.32983932    -0.93400
O901        O  0.33637255  0.97510640  0.28000971    -0.92200
C902        C  0.26123216  0.02437878  0.26394627     1.16900
H903        H  0.31335629  0.99870646  0.36133032     0.32800
H904        H  0.28177914  0.92969465  0.28500292     0.43700
H905        H  0.21759753  0.01383521  0.31027050     0.37200
H906        H  0.22653741  0.93206020  0.37607967     0.33700
H907        H  0.35422681  0.92792160  0.29917404     0.25500
H908        H  0.20365787  0.89242837  0.34433370     0.31400
H909        H  0.17146400  0.93281563  0.33673857     0.37300
H910        H  0.35738005  0.98312221  0.34623749     0.31800
H911        H  0.30095618  0.06436374  0.32782747     0.30600
H912        H  0.23616429  0.05901555  0.30948703     0.32300
H913        H  0.18367732  0.02453669  0.34458022     0.31300
H914        H  0.32211112  0.97960513  0.26778585     0.35300
H915        H  0.26970441  0.95007564  0.24028563     0.28000
H916        H  0.27778241  0.96302968  0.43841444     0.32300
H917        H  0.20502246  0.96759629  0.40321658     0.35100
H918        H  0.29889303  0.05973422  0.35794409     0.27700
H919        H  0.24577178  0.96636028  0.22969109     0.40600
H920        H  0.26190167  0.86197178  0.31471581     0.30600
H921        H  0.32850821  0.91158881  0.29838677     0.38300
H922        H  0.20161325  0.02484342  0.36926706     0.30100
H923        H  0.22204879  0.86880819  0.33901715     0.30200
H924        H  0.30120290  0.98079692  0.42903482     0.30400
Zr925      Zr  0.27101192  0.98642842  0.53554993     2.17500
O926        O  0.28052209  0.00098210  0.49131391    -0.51900
O927        O  0.25367336  0.94274178  0.52905026    -0.75100
O928        O  0.30251880  0.95531082  0.52106514    -0.81900
O929        O  0.22930728  0.03934158  0.53474658    -0.83600
O930        O  0.32083485  0.94133787  0.55841852    -0.79300
O931        O  0.23228029  0.00120312  0.51483852    -0.90900
O932        O  0.24639938  0.92470561  0.56855829    -0.76900
O933        O  0.28354430  0.98659976  0.57884151    -0.86400
O934        O  0.23814815  0.98211715  0.56844317    -0.86100
O935        O  0.31254157  0.00577982  0.54637235    -0.72800
O936        O  0.26540167  0.03013484  0.54981244    -0.84900
Zr937      Zr  0.29333254  0.02092676  0.63006871     2.26400
Zr938      Zr  0.32852364  0.98040559  0.58232343     2.06300
Zr939      Zr  0.23346082  0.02654034  0.58403289     2.10000
Zr940      Zr  0.25877449  0.95636599  0.60179807     1.78800
O941        O  0.21677941  0.06984837  0.59281802    -0.93700
O942        O  0.28759100  0.91903165  0.59785829    -0.41600
O943        O  0.25395920  0.99987132  0.61577186    -0.78200
O944        O  0.29918298  0.97508078  0.61808889    -0.96900
O945        O  0.32511963  0.02351228  0.59656539    -0.90200
O946        O  0.27354306  0.04792684  0.59749482    -0.93000
C947        C  0.24590690  0.92390360  0.54356497     1.00700
C948        C  0.22872817  0.02543880  0.51334995     1.13700
C949        C  0.31642369  0.93946122  0.53412934     1.04400
O950        O  0.34970428  0.94072459  0.59731382    -0.95200
O951        O  0.35466353  0.99478844  0.61833900    -0.90900
O952        O  0.32710497  0.99799425  0.65246752    -0.84100
C953        C  0.34950434  0.99385047  0.64267859     1.11100
O954        O  0.30439559  0.06551366  0.51865007    -0.97200
Zr955      Zr  0.30590803  0.04940833  0.56335791     1.88900
O956        O  0.32405628  0.05775261  0.63423140    -0.73800
O957        O  0.36606336  0.98955581  0.55471552    -0.53100
O958        O  0.34860115  0.05437396  0.54313240    -0.97700
O959        O  0.28858851  0.09350414  0.56207972    -0.55000
O960        O  0.33506621  0.07181511  0.59376837    -0.74300
C961        C  0.33794909  0.07180527  0.61865400     0.98000
O962        O  0.29513762  0.04705076  0.66968525    -0.63100
O963        O  0.18730085  0.01694158  0.57832145    -0.57900
O964        O  0.25650297  0.01768033  0.65922600    -0.94600
O965        O  0.22033779  0.01934215  0.63335396    -0.93000
O966        O  0.21472117  0.95159937  0.61885273    -0.93400
O967        O  0.25332954  0.94100846  0.64644264    -0.92200
C968        C  0.23172318  0.01684380  0.65650621     1.16900
H969        H  0.22201443  0.97480340  0.56209286     0.32800
H970        H  0.30620848  0.96379615  0.63144848     0.43700
H971        H  0.27008094  0.06495760  0.60444062     0.37200
H972        H  0.32424364  0.00577038  0.53164169     0.33700
H973        H  0.30186894  0.92211856  0.61038900     0.25500
H974        H  0.38109426  0.98933998  0.56677966     0.31400
H975        H  0.36032146  0.04312584  0.55360093     0.37300
H976        H  0.20479098  0.96608571  0.61086279     0.31800
H977        H  0.17812697  0.03277517  0.58421109     0.30600
H978        H  0.20983516  0.07597153  0.57586518     0.32300
H979        H  0.29300605  0.10098592  0.57919935     0.31300
H980        H  0.27080779  0.94249064  0.65451124     0.35300
H981        H  0.29328617  0.03506452  0.68470471     0.28000
H982        H  0.27010021  0.98941755  0.48001060     0.32300
H983        H  0.31317656  0.08260475  0.51880486     0.35100
H984        H  0.18469313  0.01677872  0.55925115     0.27700
H985        H  0.27942789  0.05828745  0.66983355     0.40600
H986        H  0.36835480  0.94320116  0.59293179     0.30600
H987        H  0.27766645  0.90440531  0.60561299     0.38300
H988        H  0.26938863  0.09133899  0.56244530     0.30100
H989        H  0.36820669  0.97367423  0.54413637     0.30200
H990        H  0.29883812  0.99581064  0.48808544     0.30400
Zr991      Zr  0.21879764  0.01828615  0.03166817     2.17500
O992        O  0.23534559  0.02598167  0.98716093    -0.51900
O993        O  0.23119294  0.06408572  0.02803279    -0.75100
O994        O  0.18558369  0.02202975  0.99891533    -0.81900
O995        O  0.26022088  0.96784463  0.03803538    -0.83600
O996        O  0.14929514  0.03101355  0.02207607    -0.79300
O997        O  0.26100196  0.00549292  0.01778812    -0.90900
O998        O  0.23306557  0.08353595  0.06726289    -0.76900
O999        O  0.19107174  0.04389886  0.05781343    -0.86400
O1000       O  0.24453064  0.02658109  0.06929203    -0.86100
O1001       O  0.18237906  0.98901117  0.03915435    -0.72800
O1002       O  0.22444156  0.97875661  0.05347360    -0.84900
Zr1003     Zr  0.18918555  0.98363275  0.12517753     2.26400
Zr1004     Zr  0.15526647  0.01522379  0.06633943     2.06300
Zr1005     Zr  0.25413076  0.98366417  0.08604757     2.10000
Zr1006     Zr  0.21546242  0.05110997  0.09654383     1.78800
O1007       O  0.27791575  0.94476506  0.09939617    -0.93700
O1008       O  0.18597466  0.08809491  0.09942669    -0.41600
O1009       O  0.22566850  0.00888208  0.11203478    -0.78200
O1010       O  0.17732899  0.02528010  0.10633729    -0.96900
O1011       O  0.16487993  0.97469055  0.08705430    -0.90200
O1012       O  0.21764553  0.95681934  0.09970338    -0.93000
C1013       C  0.23652707  0.08343875  0.04263958     1.00700
C1014       C  0.26235764  0.98123928  0.01631986     1.13700
C1015       C  0.16248254  0.03079032  0.00083720     1.04400
O1016       O  0.13373193  0.05351286  0.08380529    -0.95200
O1017       O  0.12513222  0.99035616  0.09199663    -0.90900
O1018       O  0.14239807  0.98972484  0.13237616    -0.84100
C1019       C  0.12309272  0.98725582  0.11660138     1.11100
O1020       O  0.19781851  0.92367820  0.02197333    -0.97200
Zr1021     Zr  0.19171254  0.94855229  0.06172473     1.88900
O1022       O  0.17599828  0.93852838  0.13345788    -0.73800
O1023       O  0.11420812  0.00976592  0.04299274    -0.53100
O1024       O  0.14988033  0.93762942  0.04156682    -0.97700
O1025       O  0.21991880  0.91054393  0.06475705    -0.55000
O1026       O  0.16457931  0.92392058  0.09365419    -0.74300
C1027       C  0.16322065  0.92290331  0.11874708     0.98000
O1028       O  0.18252373  0.98716702  0.17201316    -0.63100
O1029       O  0.29898705  0.99891245  0.08167162    -0.57900
O1030       O  0.22379048  0.99420404  0.15652918    -0.94600
O1031       O  0.26233366  0.99632836  0.13445431    -0.93000
O1032       O  0.25550577  0.06579204  0.11732045    -0.93400
O1033       O  0.21126294  0.06406630  0.14186022    -0.92200
C1034       C  0.24847223  0.99911630  0.15591761     1.16900
H1035       H  0.26025754  0.03611303  0.06503709     0.32800
H1036       H  0.16590845  0.03449820  0.11800859     0.43700
H1037       H  0.22301498  0.94127408  0.10898302     0.37200
H1038       H  0.17333154  0.98437985  0.02334237     0.33700
H1039       H  0.19745982  0.10313891  0.10311609     0.25500
H1040       H  0.11182254  0.99076151  0.04148328     0.31400
H1041       H  0.14824303  0.91853379  0.04327301     0.37300
H1042       H  0.26914013  0.05377800  0.11104418     0.31800
H1043       H  0.30041931  0.00500373  0.06343255     0.30600
H1044       H  0.27648604  0.94439146  0.11862384     0.32300
H1045       H  0.21556010  0.90232003  0.08168642     0.31300
H1046       H  0.19266589  0.06131872  0.14633301     0.35300
H1047       H  0.17062483  0.00216508  0.17421450     0.28000
H1048       H  0.23323482  0.04477573  0.98351849     0.32300
H1049       H  0.18701664  0.93249386  0.00857078     0.35100
H1050       H  0.29972183  0.01496763  0.09216940     0.27700
H1051       H  0.17202531  0.97181428  0.17693034     0.40600
H1052       H  0.11803641  0.05602236  0.07284059     0.30600
H1053       H  0.17981354  0.09110526  0.08141810     0.38300
H1054       H  0.23770481  0.91766686  0.06717211     0.30100
H1055       H  0.10031495  0.01548818  0.05501013     0.30200
H1056       H  0.22388567  0.01757011  0.97427626     0.30400
Zr1057     Zr  0.03360066  0.77548117  0.27543216     2.17500
O1058       O  0.03617815  0.73002787  0.26289132    -0.51900
O1059       O  0.01499032  0.76829741  0.31825522    -0.75100
O1060       O  0.06643797  0.75250670  0.29969615    -0.81900
O1061       O  0.98742677  0.77826239  0.22716569    -0.83600
O1062       O  0.08854334  0.78578546  0.31648609    -0.79300
O1063       O  0.99111479  0.76058814  0.26649865    -0.90900
O1064       O  0.01203235  0.80736666  0.33770905    -0.76900
O1065       O  0.05472716  0.80572104  0.30238376    -0.86400
O1066       O  0.00376435  0.81085534  0.28034870    -0.86100
O1067       O  0.07269867  0.78487592  0.25123700    -0.72800
O1068       O  0.02599598  0.79220803  0.23209077    -0.84900
Zr1069     Zr  0.05882542  0.86892797  0.24094357     2.26400
Zr1070     Zr  0.09361324  0.81494232  0.27951965     2.06300
Zr1071     Zr  0.99608703  0.82746918  0.23714766     2.10000
Zr1072     Zr  0.02673199  0.84093952  0.30717281     1.78800
O1073       O  0.97787200  0.83950857  0.19496168    -0.93700
O1074       O  0.05278610  0.84987460  0.34582647    -0.41600
O1075       O  0.02060794  0.85573240  0.26392000    -0.78200
O1076       O  0.06678930  0.85299618  0.28478768    -0.96900
O1077       O  0.08691826  0.83270899  0.23696603    -0.90200
O1078       O  0.03488502  0.84024378  0.21310973    -0.93000
C1079       C  0.00910221  0.78255131  0.33771587     1.00700
C1080       C  0.98603845  0.75785594  0.24268056     1.13700
C1081       C  0.07747318  0.76355208  0.31875909     1.04400
O1082       O  0.12519047  0.82561840  0.31323755    -0.95200
O1083       O  0.12394185  0.84834008  0.27012339    -0.90900
O1084       O  0.10436770  0.88038738  0.24694270    -0.84100
C1085       C  0.12443043  0.86946956  0.25708992     1.11100
O1086       O  0.06008071  0.76043580  0.19227463    -0.97200
Zr1087     Zr  0.06464845  0.80438544  0.20883104     1.88900
O1088       O  0.07656857  0.87589558  0.19694969    -0.73800
O1089       O  0.12758732  0.78494090  0.26584906    -0.53100
O1090       O  0.10608575  0.78380291  0.19847068    -0.97700
O1091       O  0.04347643  0.80388340  0.16633197    -0.55000
O1092       O  0.09143978  0.83635017  0.18499836    -0.74300
C1093       C  0.09136131  0.86129380  0.18304600     0.98000
O1094       O  0.06276499  0.91552732  0.24802551    -0.63100
O1095       O  0.94977752  0.82367650  0.24704066    -0.57900
O1096       O  0.02316870  0.90030419  0.24026522    -0.94600
O1097       O  0.98697081  0.87615421  0.24911195    -0.93000
O1098       O  0.98217147  0.85373513  0.31727645    -0.93400
O1099       O  0.02201031  0.88528391  0.32224512    -0.92200
C1100       C  0.99941337  0.89869222  0.24810973     1.16900
H1101       H  0.98764164  0.80542774  0.28844697     0.32800
H1102       H  0.07606299  0.86592838  0.29471057     0.43700
H1103       H  0.03070062  0.84841352  0.19666107     0.37200
H1104       H  0.08292386  0.76922109  0.24943069     0.33700
H1105       H  0.04291729  0.84212593  0.36051520     0.25500
H1106       H  0.14101148  0.79616313  0.25765212     0.31400
H1107       H  0.11742395  0.78746126  0.21362129     0.37300
H1108       H  0.97210010  0.85019886  0.30122529     0.31800
H1109       H  0.94710073  0.80503398  0.25112651     0.30600
H1110       H  0.96782979  0.82406882  0.18956129     0.32300
H1111       H  0.04381487  0.82211112  0.16008978     0.31300
H1112       H  0.03957191  0.89302812  0.32017422     0.35300
H1113       H  0.07273132  0.91730700  0.26443789     0.28000
H1114       H  0.03254613  0.71993146  0.27893338     0.32300
H1115       H  0.06137945  0.74909524  0.20790639     0.35100
H1116       H  0.94765278  0.83249625  0.26394427     0.27700
H1117       H  0.07460571  0.92196374  0.23418591     0.40600
H1118       H  0.11527676  0.83616853  0.32585467     0.30600
H1119       H  0.06841402  0.83878732  0.34407831     0.38300
H1120       H  0.02491061  0.80036211  0.17019422     0.30100
H1121       H  0.13571877  0.77888610  0.28230778     0.30200
H1122       H  0.05475460  0.72661936  0.25883663     0.30400
Zr1123     Zr  0.95445231  0.37394803  0.26931168     2.17500
O1124       O  0.95132390  0.42078389  0.26323914    -0.51900
O1125       O  0.93253298  0.38538204  0.30996279    -0.75100
O1126       O  0.91222814  0.38560964  0.25017700    -0.81900
O1127       O  0.02763727  0.37896122  0.27074007    -0.83600
O1128       O  0.89130559  0.34841367  0.25757183    -0.79300
O1129       O  0.99075091  0.40384609  0.27040806    -0.90900
O1130       O  0.92445655  0.34805948  0.33207110    -0.76900
O1131       O  0.92534778  0.33923279  0.27766461    -0.86400
O1132       O  0.97742245  0.34719708  0.30034400    -0.86100
O1133       O  0.94760920  0.35500104  0.22685662    -0.72800
O1134       O  0.99378153  0.35818737  0.24958784    -0.84900
Zr1135     Zr  0.97855320  0.27836868  0.24362733     2.26400
Zr1136     Zr  0.91963054  0.31866428  0.23629768     2.06300
Zr1137     Zr  0.01634627  0.33011747  0.27930661     2.10000
Zr1138     Zr  0.94710133  0.31290783  0.30838149     1.78800
O1139       O  0.06184638  0.32621370  0.26625186    -0.93700
O1140       O  0.90291803  0.29741310  0.31724184    -0.41600
O1141       O  0.98525726  0.29611646  0.28666953    -0.78200
O1142       O  0.94028037  0.29070788  0.26738883    -0.96900
O1143       O  0.95776957  0.30611776  0.21330940    -0.90200
O1144       O  0.00962372  0.31208324  0.23679929    -0.93000
C1145       C  0.92157728  0.37270843  0.32861016     1.00700
C1146       C  0.01557583  0.40160331  0.26878263     1.13700
C1147       C  0.89113323  0.37228133  0.25112390     1.04400
O1148       O  0.87491576  0.30515220  0.22756476    -0.95200
O1149       O  0.90894789  0.27356508  0.22777407    -0.90900
O1150       O  0.94651584  0.25095698  0.22491714    -0.84100
C1151       C  0.92199602  0.25311331  0.22203020     1.11100
O1152       O  0.99445353  0.38618240  0.19563729    -0.97200
Zr1153     Zr  0.98784917  0.34074260  0.20728821     1.88900
O1154       O  0.99755029  0.26829543  0.20202986    -0.73800
O1155       O  0.90701797  0.33649534  0.19401938    -0.53100
O1156       O  0.96798267  0.35242006  0.16573346    -0.97700
O1157       O  0.03319485  0.34997018  0.19626597    -0.55000
O1158       O  0.99902423  0.30531632  0.17810541    -0.74300
C1159       C  0.00225317  0.28072899  0.18096771     0.98000
O1160       O  0.97162229  0.23207328  0.25103921    -0.63100
O1161       O  0.03657710  0.33914188  0.32118438    -0.57900
O1162       O  0.02049749  0.26210306  0.25341574    -0.94600
O1163       O  0.02346374  0.28066202  0.29194275    -0.93000
O1164       O  0.97336991  0.31438405  0.34788317    -0.93400
O1165       O  0.94399086  0.27291682  0.33378930    -0.92200
C1166       C  0.02476194  0.25967883  0.27738565     1.16900
H1167       H  0.98160429  0.35671051  0.31595316     0.32800
H1168       H  0.92990128  0.27547659  0.27097445     0.43700
H1169       H  0.02569009  0.30556467  0.22951755     0.37200
H1170       H  0.93934834  0.36733211  0.21524316     0.33700
H1171       H  0.89204790  0.31318431  0.31908179     0.25500
H1172       H  0.89071688  0.34633898  0.19730140     0.31400
H1173       H  0.94898605  0.35175075  0.16885717     0.37300
H1174       H  0.99095887  0.30872371  0.34231786     0.31800
H1175       H  0.05265556  0.32843518  0.32138690     0.30600
H1176       H  0.06248953  0.33355168  0.24836329     0.32300
H1177       H  0.04193839  0.33285399  0.19524291     0.31300
H1178       H  0.93666092  0.25991375  0.32168483     0.35300
H1179       H  0.98867164  0.22326444  0.24910054     0.28000
H1180       H  0.93493304  0.42588705  0.27201115     0.32300
H1181       H  0.98481851  0.39599844  0.20907636     0.35100
H1182       H  0.04292404  0.35723214  0.31959033     0.27700
H1183       H  0.96637915  0.22997061  0.26937933     0.40600
H1184       H  0.86686781  0.30302308  0.24490420     0.30600
H1185       H  0.89686561  0.28966359  0.30073357     0.38300
H1186       H  0.04050123  0.35808806  0.21206841     0.30100
H1187       H  0.90144366  0.32131770  0.18375888     0.30200
H1188       H  0.94778740  0.42338362  0.24443681     0.30400
Zr1189     Zr  0.01190917  0.61411903  0.31329289     2.17500
O1190       O  0.00966880  0.66037817  0.32256602    -0.51900
O1191       O  0.05529655  0.62316470  0.33062842    -0.75100
O1192       O  0.99734885  0.62010986  0.35830781    -0.81900
O1193       O  0.01157474  0.62744068  0.23927410    -0.83600
O1194       O  0.98455290  0.58117896  0.37487492    -0.79300
O1195       O  0.00544532  0.64660931  0.27867052    -0.90900
O1196       O  0.07044967  0.58374659  0.34284147    -0.76900
O1197       O  0.01832149  0.57540069  0.33775076    -0.86400
O1198       O  0.04304141  0.59025603  0.28815950    -0.86100
O1199       O  0.96966998  0.59386832  0.31818436    -0.72800
O1200       O  0.99226137  0.60311425  0.27303277    -0.84900
Zr1201     Zr  0.98287765  0.52181541  0.27495720     2.26400
Zr1202     Zr  0.97758251  0.55280023  0.33947016     2.06300
Zr1203     Zr  0.02197933  0.57865040  0.24751088     2.10000
Zr1204     Zr  0.04898539  0.55174990  0.31388485     1.78800
O1205       O  0.01301892  0.57533322  0.20108566    -0.93700
O1206       O  0.05652557  0.52833118  0.35466061    -0.41600
O1207       O  0.02589054  0.54153606  0.27473668    -0.78200
O1208       O  0.00778447  0.52815305  0.31489454    -0.96900
O1209       O  0.95381915  0.54689206  0.29997782    -0.90200
O1210       O  0.97814912  0.56093650  0.25018665    -0.93000
C1211       C  0.07064634  0.60875479  0.34418362     1.00700
C1212       C  0.00577066  0.64779843  0.25356177     1.13700
C1213       C  0.99034641  0.60505954  0.37718348     1.04400
O1214       O  0.99331392  0.52748663  0.37650464    -0.95200
O1215       O  0.96039308  0.50909149  0.34045146    -0.90900
O1216       O  0.97484928  0.48713095  0.30534774    -0.84100
C1217       C  0.96261619  0.48842615  0.32683635     1.11100
O1218       O  0.93581889  0.63182455  0.27821926    -0.97200
Zr1219     Zr  0.94931514  0.58658418  0.27656691     1.88900
O1220       O  0.93917961  0.51880048  0.25629991    -0.73800
O1221       O  0.93483183  0.55780437  0.35941077    -0.53100
O1222       O  0.91106308  0.59255777  0.30407768    -0.97700
O1223       O  0.93966464  0.60740053  0.23485834    -0.55000
O1224       O  0.91768968  0.55699571  0.25821441    -0.74300
C1225       C  0.91898581  0.53293062  0.25245328     0.98000
O1226       O  0.97607597  0.47594060  0.26368638    -0.63100
O1227       O  0.06438957  0.59244698  0.23117545    -0.57900
O1228       O  0.00240311  0.51219174  0.23404209    -0.94600
O1229       O  0.03934925  0.53098490  0.24308509    -0.93000
O1230       O  0.08828668  0.55590908  0.28756539    -0.93400
O1231       O  0.07635722  0.51309805  0.31138480    -0.92200
C1232       C  0.02649603  0.50971632  0.23744104     1.16900
H1233       H  0.05905383  0.59977738  0.28535825     0.32800
H1234       H  0.01119213  0.51185974  0.32365649     0.43700
H1235       H  0.97086896  0.55764632  0.23316401     0.37200
H1236       H  0.95843250  0.60455504  0.32873490     0.33700
H1237       H  0.07374196  0.53447107  0.36088068     0.25500
H1238       H  0.93017746  0.57619085  0.35641516     0.31400
H1239       H  0.89763776  0.58059236  0.29727543     0.37300
H1240       H  0.08386255  0.54760581  0.27076383     0.31800
H1241       H  0.06732810  0.58167647  0.21557329     0.30600
H1242       H  0.01013172  0.55657845  0.19815797     0.32300
H1243       H  0.92592915  0.59662763  0.22681109     0.31300
H1244       H  0.06500519  0.49829941  0.31630182     0.35300
H1245       H  0.95691503  0.47336480  0.26335924     0.28000
H1246       H  0.02111138  0.66303827  0.33790096     0.32300
H1247       H  0.94390238  0.63856042  0.29435914     0.35100
H1248       H  0.06141522  0.61017549  0.22419604     0.27700
H1249       H  0.98103484  0.47313822  0.24534637     0.40600
H1250       H  0.97809145  0.52591125  0.38820643     0.30600
H1251       H  0.04391792  0.53590326  0.36700896     0.38300
H1252       H  0.95536046  0.60435757  0.22406049     0.30100
H1253       H  0.92281755  0.54803893  0.34795424     0.30200
H1254       H  0.99177492  0.66299395  0.32919296     0.30400
Zr1255     Zr  0.98901919  0.12253565  0.20832106     2.17500
O1256       O  0.00168670  0.16793088  0.20382883    -0.51900
O1257       O  0.94380043  0.13254987  0.19596802    -0.75100
O1258       O  0.99023967  0.13453066  0.16219165    -0.81900
O1259       O  0.00600200  0.12611119  0.27930417    -0.83600
O1260       O  0.97899215  0.09580073  0.14704804    -0.79300
O1261       O  0.99405690  0.15198850  0.24506864    -0.90900
O1262       O  0.92860755  0.09411797  0.18124011    -0.76900
O1263       O  0.97486951  0.08766679  0.18226921    -0.86400
O1264       O  0.96401494  0.09472423  0.23661618    -0.86100
O1265       O  0.02814592  0.10352527  0.19007608    -0.72800
O1266       O  0.01865486  0.10583792  0.24049630    -0.84900
Zr1267     Zr  0.01948026  0.02561482  0.22307077     2.26400
Zr1268     Zr  0.01243979  0.06779466  0.16443839     2.06300
Zr1269     Zr  0.99410786  0.07786774  0.26892355     2.10000
Zr1270     Zr  0.94980489  0.06048579  0.20840088     1.78800
O1271       O  0.01350632  0.07159045  0.31185214    -0.93700
O1272       O  0.93227728  0.03751169  0.17094514    -0.41600
O1273       O  0.97999110  0.04442247  0.24020828    -0.78200
O1274       O  0.98779671  0.03844556  0.19106368    -0.96900
O1275       O  0.04369641  0.05321670  0.19554884    -0.90200
O1276       O  0.03345945  0.05927698  0.25145302    -0.93000
C1277       C  0.92851914  0.11913946  0.18135998     1.00700
C1278       C  0.00367460  0.14919924  0.26807460     1.13700
C1279       C  0.98249179  0.12007571  0.14351608     1.04400
O1280       O  0.00543653  0.05581782  0.11921845    -0.95200
O1281       O  0.02329392  0.02414742  0.15026556    -0.90900
O1282       O  0.03339642  0.00138380  0.18655934    -0.84100
C1283       C  0.03240755  0.00399840  0.16194615     1.11100
O1284       O  0.07842743  0.12901854  0.21541919    -0.97200
Zr1285     Zr  0.05759131  0.08714142  0.22300393     1.88900
O1286       O  0.06392193  0.01459894  0.23521915    -0.73800
O1287       O  0.04773301  0.08873844  0.14045559    -0.53100
O1288       O  0.09032232  0.08360210  0.18881040    -0.97700
O1289       O  0.07875563  0.10306457  0.26229692    -0.55000
O1290       O  0.08693859  0.05215229  0.23615133    -0.74300
C1291       C  0.08483571  0.02751758  0.23946841     0.98000
O1292       O  0.00501587  0.98061775  0.22090885    -0.63100
O1293       O  0.95594234  0.08928284  0.29460141    -0.57900
O1294       O  0.01799726  0.00853637  0.26570288    -0.94600
O1295       O  0.98173664  0.02869397  0.27735503    -0.93000
O1296       O  0.91155618  0.06997334  0.23476513    -0.93400
O1297       O  0.92586391  0.02193540  0.22215817    -0.92200
C1298       C  0.99530699  0.00708379  0.27486964     1.16900
H1299       H  0.94961939  0.10398697  0.24434065     0.32800
H1300       H  0.98226699  0.02355196  0.18114268     0.43700
H1301       H  0.04428583  0.05271522  0.26542248     0.37200
H1302       H  0.03696968  0.11629173  0.17940781     0.33700
H1303       H  0.91372155  0.04267334  0.17015629     0.25500
H1304       H  0.05774481  0.07421265  0.13286521     0.31400
H1305       H  0.10715145  0.08145053  0.19806806     0.37300
H1306       H  0.89789423  0.07495138  0.22202077     0.31800
H1307       H  0.94519380  0.07334181  0.29477322     0.30600
H1308       H  0.03212480  0.06790401  0.30849251     0.32300
H1309       H  0.08387445  0.08727969  0.27222421     0.31300
H1310       H  0.93497389  0.00735750  0.21362048     0.35300
H1311       H  0.99557999  0.97830567  0.20422780     0.28000
H1312       H  0.01843707  0.16753471  0.19428023     0.32300
H1313       H  0.09717856  0.12622602  0.21909639     0.35100
H1314       H  0.96251803  0.09080526  0.31265993     0.27700
H1315       H  0.02074024  0.96950386  0.21994605     0.40600
H1316       H  0.98793684  0.04766507  0.11899134     0.30600
H1317       H  0.94036846  0.04619034  0.15564197     0.38300
H1318       H  0.06434995  0.11048307  0.27260099     0.30100
H1319       H  0.03911470  0.09722524  0.12535830     0.30200
H1320       H  0.98921163  0.17548728  0.19123366     0.30400
Zr1321     Zr  0.97764708  0.71391782  0.49671456     2.17500
O1322       O  0.02063415  0.69659953  0.50726275    -0.51900
O1323       O  0.98409561  0.73035588  0.45233339    -0.75100
O1324       O  0.98757971  0.67663623  0.47176306    -0.81900
O1325       O  0.98894371  0.76605706  0.53638756    -0.83600
O1326       O  0.96793733  0.64393794  0.49362200    -0.79300
O1327       O  0.00575696  0.75012034  0.49964224    -0.90900
O1328       O  0.94368504  0.73600428  0.43485498    -0.76900
O1329       O  0.94203320  0.69248585  0.47720500    -0.86400
O1330       O  0.94763338  0.74816602  0.48790308    -0.86100
O1331       O  0.96397281  0.68312987  0.52954036    -0.72800
O1332       O  0.96740235  0.73204105  0.53856846    -0.84900
Zr1333     Zr  0.88469386  0.71429763  0.54184337     2.26400
Zr1334     Zr  0.92723138  0.66258394  0.50950522     2.06300
Zr1335     Zr  0.93782954  0.76649855  0.52940698     2.10000
Zr1336     Zr  0.91174776  0.72574545  0.46836802     1.78800
O1337       O  0.93232734  0.79480207  0.56672551    -0.93700
O1338       O  0.90392768  0.69523052  0.43311158    -0.41600
O1339       O  0.90347243  0.74272835  0.51033849    -0.78200
O1340       O  0.89455952  0.69484416  0.49947575    -0.96900
O1341       O  0.91595660  0.68123578  0.55034483    -0.90200
O1342       O  0.92042459  0.73671128  0.56195070    -0.93000
C1343       C  0.96865925  0.73695948  0.43365310     1.00700
C1344       C  0.00929017  0.75995794  0.52182703     1.13700
C1345       C  0.98268409  0.65264697  0.47533027     1.04400
O1346       O  0.90465994  0.64331263  0.47275616    -0.95200
O1347       O  0.89327644  0.65523896  0.54134251    -0.90900
O1348       O  0.85808919  0.67733774  0.53131749    -0.84100
C1349       C  0.86974419  0.65564820  0.53353766     1.11100
O1350       O  0.99431914  0.70868546  0.58872781    -0.97200
Zr1351     Zr  0.95095014  0.70214297  0.57059011     1.88900
O1352       O  0.87920577  0.69448005  0.58529712    -0.73800
O1353       O  0.92821991  0.61647188  0.52044297    -0.53100
O1354       O  0.97194211  0.66163153  0.58364093    -0.97700
O1355       O  0.95138988  0.72746400  0.61053797    -0.55000
O1356       O  0.91859391  0.67858811  0.59712530    -0.74300
C1357       C  0.89359415  0.67948367  0.59941613     0.98000
O1358       O  0.84414432  0.73017454  0.56052241    -0.63100
O1359       O  0.95018714  0.80807572  0.51015013    -0.57900
O1360       O  0.86009582  0.75257496  0.52913772    -0.94600
O1361       O  0.89071010  0.78230319  0.51651350    -0.93000
O1362       O  0.89715520  0.76821620  0.45327443    -0.93400
O1363       O  0.86661204  0.72731623  0.45352583    -0.92200
C1364       C  0.86615393  0.77445681  0.51871102     1.16900
H1365       H  0.95473241  0.76159620  0.47680246     0.32800
H1366       H  0.87959284  0.68691728  0.49136706     0.43700
H1367       H  0.91471894  0.74556870  0.57743835     0.37200
H1368       H  0.97780666  0.67079060  0.53274794     0.33700
H1369       H  0.92035850  0.68529708  0.43127538     0.25500
H1370       H  0.94440593  0.61404305  0.53070661     0.31400
H1371       H  0.96185150  0.64793129  0.57468713     0.37300
H1372       H  0.90884586  0.78067880  0.46205086     0.31800
H1373       H  0.96349915  0.80378430  0.49686603     0.30600
H1374       H  0.95033257  0.79880452  0.57234162     0.32300
H1375       H  0.93306560  0.72775091  0.61663947     0.31300
H1376       H  0.85613563  0.72153878  0.46866917     0.35300
H1377       H  0.83248716  0.71490996  0.56020096     0.28000
H1378       H  0.03325247  0.70898990  0.49976051     0.32300
H1379       H  0.00605568  0.69874947  0.57720033     0.35100
H1380       H  0.93473364  0.81351357  0.49996472     0.27700
H1381       H  0.84780626  0.73312531  0.57921435     0.40600
H1382       H  0.91833613  0.64097498  0.45940162     0.30600
H1383       H  0.89126466  0.68253493  0.44023698     0.38300
H1384       H  0.95505603  0.74550084  0.60485368     0.30100
H1385       H  0.93149856  0.60743337  0.50382506     0.30200
H1386       H  0.02229352  0.69860267  0.52637113     0.30400
Zr1387     Zr  0.39206300  0.80052763  0.47057307     2.17500
O1388       O  0.35121248  0.79700262  0.44612792    -0.51900
O1389       O  0.38587256  0.82772715  0.43188542    -0.75100
O1390       O  0.37084580  0.83740239  0.48914056    -0.81900
O1391       O  0.39073522  0.72820753  0.47564117    -0.83600
O1392       O  0.40364511  0.86586597  0.49684922    -0.79300
O1393       O  0.36469074  0.76368485  0.48108715    -0.90900
O1394       O  0.42543427  0.84479558  0.42298290    -0.76900
O1395       O  0.42536153  0.83192275  0.46676834    -0.86400
O1396       O  0.42369824  0.77940347  0.44384231    -0.86100
O1397       O  0.40512982  0.80964245  0.51497106    -0.72800
O1398       O  0.40824105  0.76380679  0.49363993    -0.84900
Zr1399     Zr  0.48553489  0.78296417  0.50959163     2.26400
Zr1400     Zr  0.44040027  0.83991255  0.50960453     2.06300
Zr1401     Zr  0.43988025  0.74257138  0.46853749     2.10000
Zr1402     Zr  0.45692925  0.81205535  0.44075715     1.78800
O1403       O  0.44789306  0.69773827  0.48204838    -0.93700
O1404       O  0.48425687  0.84975166  0.43113881    -0.41600
O1405       O  0.46749877  0.77755944  0.46832268    -0.78200
O1406       O  0.47437678  0.82107103  0.48392871    -0.96900
O1407       O  0.45220077  0.80233262  0.53412755    -0.90200
O1408       O  0.45297340  0.75006893  0.51289522    -0.93000
C1409       C  0.40024735  0.84532466  0.42137240     1.00700
C1410       C  0.36771192  0.73901937  0.48057969     1.13700
C1411       C  0.37960970  0.86016842  0.49375810     1.04400
O1412       O  0.46603725  0.87680060  0.49434668    -0.95200
O1413       O  0.47017894  0.84343300  0.54564482    -0.90900
O1414       O  0.50296902  0.81472602  0.53896863    -0.84100
C1415       C  0.49184203  0.83271793  0.55172201     1.11100
O1416       O  0.37330367  0.76880663  0.54916581    -0.97200
Zr1417     Zr  0.41937532  0.77073457  0.53775777     1.88900
O1418       O  0.49083698  0.76101712  0.55226916    -0.73800
O1419       O  0.42204977  0.86854098  0.54242419    -0.53100
O1420       O  0.40964639  0.79305116  0.57824963    -0.97700
O1421       O  0.40579351  0.72576223  0.54405692    -0.55000
O1422       O  0.45084912  0.75532145  0.57005650    -0.74300
C1423       C  0.47582793  0.75334776  0.57094175     0.98000
O1424       O  0.53221208  0.79070218  0.50405347    -0.63100
O1425       O  0.43441150  0.72200654  0.42625711    -0.57900
O1426       O  0.50863163  0.74536764  0.49643622    -0.94600
O1427       O  0.48973717  0.74211761  0.45757949    -0.93000
O1428       O  0.44765555  0.79561323  0.39719331    -0.93400
O1429       O  0.49612660  0.80222272  0.41601547    -0.92200
C1430       C  0.51086787  0.74291771  0.47210447     1.16900
H1431       H  0.41618156  0.77439797  0.42732327     0.32800
H1432       H  0.48926719  0.83254992  0.48278412     0.43700
H1433       H  0.45939332  0.73434590  0.52106341     0.37200
H1434       H  0.39138442  0.81716357  0.52530875     0.33700
H1435       H  0.48104995  0.85368334  0.41246635     0.25500
H1436       H  0.42224152  0.85829711  0.55881778     0.31400
H1437       H  0.40978194  0.81173244  0.57351922     0.37300
H1438       H  0.44428045  0.81129245  0.38641347     0.31800
H1439       H  0.44877358  0.70915033  0.42529260     0.30600
H1440       H  0.43416515  0.69394170  0.49511436     0.32300
H1441       H  0.42185061  0.71633990  0.54919298     0.31300
H1442       H  0.49638742  0.78304640  0.41497133     0.35300
H1443       H  0.53445536  0.80967390  0.50188996     0.28000
H1444       H  0.35118744  0.77976822  0.43761833     0.32300
H1445       H  0.37236771  0.75800909  0.56516712     0.35100
H1446       H  0.41845826  0.71137263  0.42813645     0.27700
H1447       H  0.54029523  0.78642091  0.52109673     0.40600
H1448       H  0.45406657  0.88649803  0.48261748     0.30600
H1449       H  0.47585038  0.86426034  0.44043443     0.38300
H1450       H  0.40180287  0.71936678  0.52636652     0.30100
H1451       H  0.43531981  0.88225979  0.54499831     0.30200
H1452       H  0.33687021  0.79648979  0.45900054     0.30400
Zr1453     Zr  0.73587912  0.75045935  0.53293646     2.17500
O1454       O  0.78074079  0.76048923  0.54482051    -0.51900
O1455       O  0.74487287  0.70758129  0.51465201    -0.75100
O1456       O  0.74843790  0.72363548  0.56933027    -0.81900
O1457       O  0.73906445  0.79553508  0.48314116    -0.83600
O1458       O  0.73140601  0.74579592  0.60247547    -0.79300
O1459       O  0.75869281  0.75819647  0.49351505    -0.90900
O1460       O  0.70565423  0.68859457  0.50724125    -0.76900
O1461       O  0.70297078  0.72662841  0.55458359    -0.86400
O1462       O  0.70427049  0.74275713  0.49968623    -0.86100
O1463       O  0.72145760  0.78007211  0.56631088    -0.72800
O1464       O  0.72030333  0.79268005  0.51877177    -0.84900
Zr1465     Zr  0.63941465  0.78772702  0.54173510     2.26400
Zr1466     Zr  0.68778443  0.75520758  0.58755999     2.06300
Zr1467     Zr  0.68915707  0.78457521  0.48527676     2.10000
Zr1468     Zr  0.67154055  0.71834324  0.52207650     1.78800
O1469       O  0.68243152  0.82376582  0.45931484    -0.93700
O1470       O  0.66838417  0.68024120  0.55044371    -0.41600
O1471       O  0.65747103  0.76045114  0.50886081    -0.78200
O1472       O  0.65426841  0.74500717  0.55641575    -0.96900
O1473       O  0.67198297  0.79630650  0.57328418    -0.90200
O1474       O  0.67124697  0.81281918  0.51844453    -0.93000
C1475       C  0.73077648  0.68856708  0.50664492     1.00700
C1476       C  0.76043189  0.78166413  0.48646718     1.13700
C1477       C  0.74426025  0.72664672  0.59359675     1.04400
O1478       O  0.66880313  0.71511197  0.60442862    -0.95200
O1479       O  0.65333213  0.78232620  0.60346233    -0.90900
O1480       O  0.61872935  0.77166954  0.58029111    -0.84100
C1481       C  0.63000993  0.77406902  0.60215392     1.11100
O1482       O  0.74284337  0.84537588  0.54058633    -0.97200
Zr1483     Zr  0.70346785  0.82118374  0.55146425     1.88900
O1484       O  0.63232968  0.82887603  0.56520358    -0.73800
O1485       O  0.69311070  0.75822167  0.63464926    -0.53100
O1486       O  0.72931816  0.83314005  0.58934828    -0.97700
O1487       O  0.69521717  0.86355868  0.53145191    -0.55000
O1488       O  0.67156971  0.84097998  0.58112715    -0.74300
C1489       C  0.64647548  0.84162936  0.58150101     0.98000
O1490       O  0.59268795  0.79558052  0.53614680    -0.63100
O1491       O  0.69777175  0.76617373  0.44259177    -0.57900
O1492       O  0.61295621  0.78389093  0.50289965    -0.94600
O1493       O  0.64167175  0.77310495  0.47093352    -0.93000
O1494       O  0.65492687  0.70569685  0.47958162    -0.93400
O1495       O  0.62678538  0.70223023  0.52192277    -0.92200
C1496       C  0.61769963  0.77514032  0.48012670     1.16900
H1497       H  0.71144286  0.73349468  0.48508563     0.32800
H1498       H  0.64061203  0.73491888  0.56445663     0.43700
H1499       H  0.66344552  0.82829074  0.51111857     0.37200
H1500       H  0.73590841  0.78405236  0.57768222     0.33700
H1501       H  0.68518791  0.67935044  0.55991931     0.25500
H1502       H  0.69359801  0.77706121  0.63822583     0.31400
H1503       H  0.71966985  0.82573928  0.60437176     0.37300
H1504       H  0.66893211  0.71049352  0.46724851     0.31800
H1505       H  0.69416731  0.78046759  0.43010714     0.30600
H1506       H  0.66363286  0.82770426  0.46123864     0.32300
H1507       H  0.67652167  0.86724062  0.53466031     0.31300
H1508       H  0.62807013  0.68341916  0.51827889     0.35300
H1509       H  0.58360547  0.78333357  0.54809597     0.28000
H1510       H  0.79043935  0.74412237  0.54226898     0.32300
H1511       H  0.74449456  0.84388557  0.52145696     0.35100
H1512       H  0.71692293  0.76395861  0.44204606     0.27700
H1513       H  0.58936452  0.81289678  0.54357615     0.40600
H1514       H  0.65281349  0.72051418  0.61371619     0.30600
H1515       H  0.65541330  0.68495955  0.56389942     0.38300
H1516       H  0.69649883  0.86082735  0.51245665     0.30100
H1517       H  0.67637392  0.75220769  0.64221756     0.30200
H1518       H  0.78066632  0.76313767  0.56391804     0.30400
Zr1519     Zr  0.21766419  0.76962264  0.46142713     2.17500
O1520       O  0.26244993  0.78457349  0.45500781    -0.51900
O1521       O  0.22386797  0.81090370  0.48503152    -0.75100
O1522       O  0.22298098  0.78639318  0.41814465    -0.81900
O1523       O  0.23784082  0.71793244  0.50826877    -0.83600
O1524       O  0.18458403  0.80450698  0.40891997    -0.79300
O1525       O  0.25384411  0.74494414  0.47692777    -0.90900
O1526       O  0.18433262  0.82410121  0.49946884    -0.76900
O1527       O  0.17808597  0.79161753  0.45212218    -0.86400
O1528       O  0.19426746  0.76826001  0.50145615    -0.86100
O1529       O  0.19838006  0.74500020  0.42602080    -0.72800
O1530       O  0.21086212  0.72441758  0.47107744    -0.84900
Zr1531     Zr  0.12725265  0.71764681  0.46457410     2.26400
Zr1532     Zr  0.15760578  0.76678762  0.41841079     2.06300
Zr1533     Zr  0.18701850  0.72293247  0.51076278     2.10000
Zr1534     Zr  0.15373275  0.78928275  0.49069870     1.78800
O1535       O  0.18537865  0.68073405  0.53235812    -0.93700
O1536       O  0.13184098  0.82428533  0.46703256    -0.41600
O1537       O  0.14949823  0.74404414  0.49526889    -0.78200
O1538       O  0.13137425  0.76447267  0.45721901    -0.96900
O1539       O  0.15207411  0.72120294  0.42595848    -0.90200
O1540       O  0.16734123  0.69653078  0.47655035    -0.93000
C1541       C  0.20890059  0.82734381  0.49649779     1.00700
C1542       C  0.25727522  0.72749973  0.49426765     1.13700
C1543       C  0.20953821  0.80526829  0.40968235     1.04400
O1544       O  0.12967767  0.80060476  0.40011567    -0.95200
O1545       O  0.11520564  0.75208024  0.40426289    -0.90900
O1546       O  0.09276135  0.73269344  0.43711439    -0.84100
C1547       C  0.09459160  0.74196103  0.41421995     1.11100
O1548       O  0.23702889  0.68709232  0.43250272    -0.97200
Zr1549     Zr  0.19145963  0.69978116  0.43650685     1.88900
O1550       O  0.12174595  0.67861033  0.43724957    -0.73800
O1551       O  0.17036841  0.75704088  0.37385936    -0.53100
O1552       O  0.20795011  0.69765295  0.39206426    -0.97700
O1553       O  0.19819805  0.65480817  0.45015937    -0.55000
O1554       O  0.15779028  0.67614974  0.41225515    -0.74300
C1555       C  0.13399724  0.67000703  0.41720624     0.98000
O1556       O  0.08501872  0.70138623  0.47938937    -0.63100
O1557       O  0.20109104  0.73640389  0.55391190    -0.57900
O1558       O  0.11447037  0.70636254  0.50853458    -0.94600
O1559       O  0.14069304  0.73310388  0.52989790    -0.93000
O1560       O  0.14915744  0.78698664  0.53790024    -0.93400
O1561       O  0.11568889  0.80645525  0.51324139    -0.92200
C1562       C  0.11706766  0.72396884  0.52551495     1.16900
H1563       H  0.20349630  0.77645078  0.51558539     0.32800
H1564       H  0.11461806  0.77249101  0.45415299     0.43700
H1565       H  0.16422372  0.67886250  0.48217186     0.37200
H1566       H  0.20885772  0.74504554  0.41039877     0.33700
H1567       H  0.13938577  0.84045833  0.47413455     0.25500
H1568       H  0.17389145  0.73815863  0.37401697     0.31400
H1569       H  0.20389213  0.67980691  0.38624883     0.37300
H1570       H  0.16660459  0.79155783  0.54477069     0.31800
H1571       H  0.18925096  0.72719585  0.56598107     0.30600
H1572       H  0.20354940  0.67756377  0.53817022     0.32300
H1573       H  0.18058252  0.64696005  0.45078215     0.31300
H1574       H  0.12022322  0.82455802  0.51773812     0.35300
H1575       H  0.07294210  0.71633124  0.47825941     0.28000
H1576       H  0.26104005  0.80308864  0.44989011     0.32300
H1577       H  0.24314351  0.68480475  0.45065774     0.35100
H1578       H  0.21826906  0.72792367  0.55654750     0.27700
H1579       H  0.07904279  0.68945571  0.46558118     0.40600
H1580       H  0.13097166  0.79857993  0.38100815     0.30600
H1581       H  0.13863324  0.82347923  0.44901415     0.38300
H1582       H  0.20381074  0.65574411  0.46856825     0.30100
H1583       H  0.15408861  0.75884039  0.36359878     0.30200
H1584       H  0.26873563  0.77577984  0.43912733     0.30400
C1585       C  0.29836459  0.71177118  0.47218291    -0.20900
C1586       C  0.28596556  0.71909563  0.49576464    -0.07500
C1587       C  0.30276934  0.72723246  0.51604593     0.13400
C1588       C  0.33029574  0.72951874  0.51177705    -0.20900
C1589       C  0.34236239  0.72448339  0.48739277    -0.07500
C1590       C  0.32577345  0.71452038  0.46778226     0.13400
C1591       C  0.33672065  0.70876897  0.44128273    -0.24300
H1592       H  0.28610388  0.70618871  0.45598170     0.14700
H1593       H  0.34220657  0.73761832  0.52705491     0.14700
C1594       C  0.29136395  0.73574717  0.54157416    -0.24200
H1595       H  0.32152133  0.70125503  0.42788519     0.04900
H1596       H  0.35231742  0.69390615  0.44308737     0.08200
H1597       H  0.34504299  0.72670433  0.43250984     0.08200
H1598       H  0.28012343  0.71950610  0.55041890     0.08100
H1599       H  0.27814944  0.75256019  0.53838356     0.08100
H1600       H  0.30677530  0.74163876  0.55554676     0.04900
C1601       C  0.58584777  0.73846117  0.47173489    -0.20900
C1602       C  0.59325573  0.76444474  0.46654081    -0.07500
C1603       C  0.57311857  0.78104130  0.45708010     0.13400
C1604       C  0.54686565  0.77188679  0.45420149    -0.20900
C1605       C  0.53893781  0.74671858  0.46218178    -0.07500
C1606       C  0.55938384  0.72970302  0.47014742     0.13400
C1607       C  0.55300085  0.70237208  0.47849848    -0.24300
H1608       H  0.60047305  0.72543867  0.47965034     0.14700
H1609       H  0.53182331  0.78573314  0.44906582     0.14700
C1610       C  0.57894341  0.80923456  0.45188719    -0.24200
H1611       H  0.57081904  0.69127839  0.48385439     0.04900
H1612       H  0.54315825  0.69212576  0.46227692     0.08200
H1613       H  0.53990343  0.70255127  0.49568656     0.08200
H1614       H  0.59452292  0.81090413  0.43697001     0.08100
H1615       H  0.58555744  0.81872420  0.47007969     0.08100
H1616       H  0.56148053  0.81982051  0.44463820     0.04900
C1617       C  0.04679515  0.74150183  0.54961014    -0.20900
C1618       C  0.03820983  0.75941636  0.53029683    -0.07500
C1619       C  0.05793185  0.76854795  0.51289959     0.13400
C1620       C  0.08379634  0.75832800  0.51373900    -0.20900
C1621       C  0.09195084  0.73919756  0.53177707    -0.07500
C1622       C  0.07287599  0.73112163  0.55024686     0.13400
C1623       C  0.07967433  0.71041210  0.56985230    -0.24300
H1624       H  0.03239873  0.73366970  0.56283480     0.14700
H1625       H  0.09734951  0.76392608  0.49859721     0.14700
C1626       C  0.05149379  0.78864294  0.49236569    -0.24200
H1627       H  0.06300800  0.70601592  0.58296397     0.04900
H1628       H  0.09635002  0.71698133  0.58194739     0.08200
H1629       H  0.08517886  0.69229022  0.55966565     0.08200
H1630       H  0.04357487  0.80627653  0.50181671     0.08100
H1631       H  0.03693805  0.78105480  0.47838716     0.08100
H1632       H  0.06900874  0.79442854  0.48099429     0.04900
C1633       C  0.83481658  0.78060209  0.48096435    -0.20900
C1634       C  0.84255585  0.78819800  0.50623091    -0.07500
C1635       C  0.82290467  0.80029805  0.52148049     0.13400
C1636       C  0.79672253  0.80301293  0.51199760    -0.20900
C1637       C  0.78835206  0.79222916  0.48812694    -0.07500
C1638       C  0.80839572  0.78196519  0.47208820     0.13400
C1639       C  0.80155279  0.77090498  0.44590619    -0.24300
H1640       H  0.84905853  0.77110080  0.46888247     0.14700
H1641       H  0.78194769  0.81041503  0.52503865     0.14700
C1642       C  0.82907374  0.80857638  0.54882487    -0.24200
H1643       H  0.81910859  0.76381482  0.43548429     0.04900
H1644       H  0.79217574  0.78615272  0.43369809     0.08200
H1645       H  0.78788672  0.75434579  0.44825152     0.08200
H1646       H  0.84527701  0.82286823  0.54848734     0.08100
H1647       H  0.83496511  0.79146808  0.56071955     0.08100
H1648       H  0.81198214  0.81773156  0.55835465     0.04900
C1649       C  0.10403009  0.64326041  0.35387114    -0.20900
C1650       C  0.08897500  0.62218350  0.36280993    -0.07500
C1651       C  0.08953163  0.61635325  0.38987913     0.13400
C1652       C  0.10440092  0.63193683  0.40710559    -0.20900
C1653       C  0.11950890  0.65301561  0.39811587    -0.07500
C1654       C  0.11933325  0.65848116  0.37094040     0.13400
C1655       C  0.13433884  0.68117328  0.35984920    -0.24300
H1656       H  0.10355409  0.64808605  0.33329589     0.14700
H1657       H  0.10416026  0.62765831  0.42779534     0.14700
C1658       C  0.07365660  0.59425129  0.40086384    -0.24200
H1659       H  0.13114837  0.68341056  0.33856399     0.04900
H1660       H  0.15555193  0.67826235  0.36297118     0.08200
H1661       H  0.12804847  0.69941362  0.36937705     0.08200
H1662       H  0.08054792  0.57562608  0.39261234     0.08100
H1663       H  0.05274815  0.59699894  0.39594387     0.08100
H1664       H  0.07539752  0.59292316  0.42239048     0.04900
C1665       C  0.00954275  0.63257119  0.41120440    -0.20900
C1666       C  0.98992000  0.61520265  0.40379005    -0.07500
C1667       C  0.97159470  0.60628711  0.42250887     0.13400
C1668       C  0.97284134  0.61585692  0.44777644    -0.20900
C1669       C  0.99084905  0.63508002  0.45450444    -0.07500
C1670       C  0.01057399  0.64226556  0.43650677     0.13400
C1671       C  0.03270041  0.66031494  0.44321871    -0.24300
H1672       H  0.02429601  0.63850234  0.39723898     0.14700
H1673       H  0.95779731  0.61024419  0.46151201     0.14700
C1674       C  0.94923328  0.58844522  0.41576602    -0.24200
H1675       H  0.05156267  0.65098710  0.43822499     0.04900
H1676       H  0.03343049  0.66476732  0.46428726     0.08200
H1677       H  0.03081820  0.67868182  0.43189168     0.08200
H1678       H  0.95655654  0.56883477  0.41087241     0.08100
H1679       H  0.93803985  0.59675922  0.39918283     0.08100
H1680       H  0.93544424  0.58592654  0.43227341     0.04900
C1681       C  0.00045379  0.19086771  0.29689208    -0.20900
C1682       C  0.01477649  0.17485688  0.27960892    -0.07500
C1683       C  0.03685741  0.18700859  0.26780687     0.13400
C1684       C  0.04205018  0.21410022  0.27081974    -0.20900
C1685       C  0.02647715  0.23078508  0.28611880    -0.07500
C1686       C  0.00645233  0.21803555  0.30070593     0.13400
C1687       C  0.98988860  0.23372512  0.31877829    -0.24300
H1688       H  0.98342475  0.18263093  0.30628107     0.14700
H1689       H  0.05748479  0.22283526  0.25930774     0.14700
C1690       C  0.05486841  0.17142736  0.25094019    -0.24200
H1691       H  0.97461848  0.22168076  0.32829165     0.04900
H1692       H  0.98023985  0.24958508  0.30777775     0.08200
H1693       H  0.00234442  0.24232196  0.33415691     0.08200
H1694       H  0.04398206  0.16282080  0.23450916     0.08100
H1695       H  0.06381881  0.15573134  0.26280856     0.08100
H1696       H  0.07086283  0.18346795  0.24268501     0.04900
C1697       C  0.03224939  0.43461198  0.23555597    -0.20900
C1698       C  0.02913195  0.42750966  0.26206172    -0.07500
C1699       C  0.03009470  0.44836707  0.28011297     0.13400
C1700       C  0.03398737  0.47462834  0.27155326    -0.20900
C1701       C  0.03519195  0.48196768  0.24494743    -0.07500
C1702       C  0.03453875  0.46104279  0.22691228     0.13400
C1703       C  0.03442991  0.46610491  0.19803070    -0.24300
H1704       H  0.03040806  0.41955835  0.22105057     0.14700
H1705       H  0.03261720  0.48994874  0.28572062     0.14700
C1706       C  0.02479498  0.44322435  0.30852696    -0.24200
H1707       H  0.05095923  0.45564728  0.18890719     0.04900
H1708       H  0.03648697  0.48702393  0.19319398     0.08200
H1709       H  0.01585991  0.45896979  0.18952096     0.08200
H1710       H  0.03920364  0.42904409  0.31624119     0.08100
H1711       H  0.00482207  0.43524527  0.31105018     0.08100
H1712       H  0.02620992  0.46120261  0.32025279     0.04900
C1713       C  0.99582072  0.78509070  0.38450482    -0.20900
C1714       C  0.99879268  0.76977029  0.36205806    -0.07500
C1715       C  0.99170999  0.74300814  0.36371161     0.13400
C1716       C  0.98268217  0.73261371  0.38753534    -0.20900
C1717       C  0.98007946  0.74809257  0.40963276    -0.07500
C1718       C  0.98628370  0.77468941  0.40799188     0.13400
C1719       C  0.98226034  0.79228780  0.43096125    -0.24300
H1720       H  0.00082373  0.80550928  0.38379056     0.14700
H1721       H  0.97720716  0.71231667  0.38887687     0.14700
C1722       C  0.99269300  0.72515626  0.34060600    -0.24200
H1723       H  0.98805216  0.81260689  0.42647644     0.04900
H1724       H  0.99415531  0.78537192  0.44769797     0.08200
H1725       H  0.96133944  0.79229842  0.43657567     0.08200
H1726       H  0.01312743  0.72273292  0.33398878     0.08100
H1727       H  0.98044193  0.73304363  0.32454862     0.08100
H1728       H  0.98505589  0.70558189  0.34550834     0.04900
C1729       C  0.00366220  0.93421275  0.28155892    -0.20900
C1730       C  0.98925607  0.92420348  0.26040651    -0.07500
C1731       C  0.97073122  0.94160902  0.24915210     0.13400
C1732       C  0.96867140  0.96813864  0.25798502    -0.20900
C1733       C  0.98554477  0.97874829  0.27722237    -0.07500
C1734       C  0.00166739  0.96033167  0.29029387     0.13400
C1735       C  0.01784368  0.96860960  0.31330188    -0.24300
H1736       H  0.01826121  0.92186864  0.29034503     0.14700
H1737       H  0.95630701  0.98145192  0.24725035     0.14700
C1738       C  0.95481257  0.93298569  0.22623324    -0.24200
H1739       H  0.02946761  0.95226804  0.32147418     0.04900
H1740       H  0.00475855  0.97585160  0.32884509     0.08200
H1741       H  0.03151486  0.98430889  0.30776158     0.08200
H1742       H  0.94270251  0.91600584  0.23191069     0.08100
H1743       H  0.96794634  0.92740596  0.21003038     0.08100
H1744       H  0.94165661  0.94864638  0.21912680     0.04900
C1745       C  0.97482765  0.68601856  0.25475910    -0.20900
C1746       C  0.99628563  0.67414723  0.24234377    -0.07500
C1747       C  0.00925020  0.68959229  0.22321998     0.13400
C1748       C  0.00276227  0.71667707  0.21981500    -0.20900
C1749       C  0.98326316  0.72918319  0.23490351    -0.07500
C1750       C  0.96798342  0.71251711  0.25102764     0.13400
C1751       C  0.94467648  0.72301138  0.26548264    -0.24300
H1752       H  0.96387218  0.67468662  0.26879179     0.14700
H1753       H  0.01490292  0.72863159  0.20734164     0.14700
C1754       C  0.03110217  0.67806591  0.20767822    -0.24200
H1755       H  0.93419453  0.70746789  0.27632974     0.04900
H1756       H  0.93079367  0.73183394  0.25136672     0.08200
H1757       H  0.95062707  0.73784908  0.27982418     0.08200
H1758       H  0.02366811  0.66135153  0.19632642     0.08100
H1759       H  0.04682338  0.67128678  0.22095644     0.08100
H1760       H  0.03954321  0.69243195  0.19382759     0.04900
C1761       C  0.06542562  0.77310446  0.36364461    -0.20900
C1762       C  0.07204312  0.75424489  0.34514723    -0.07500
C1763       C  0.07209051  0.72781284  0.35249236     0.13400
C1764       C  0.07192622  0.72173603  0.37915205    -0.20900
C1765       C  0.07194107  0.74179334  0.39747154    -0.07500
C1766       C  0.06375313  0.76658897  0.38987598     0.13400
C1767       C  0.05799997  0.78705203  0.40987644    -0.24300
H1768       H  0.06256077  0.79312233  0.35774416     0.14700
H1769       H  0.07644645  0.70211016  0.38547143     0.14700
C1770       C  0.07417965  0.70645401  0.33279884    -0.24200
H1771       H  0.05200097  0.80564867  0.40057389     0.04900
H1772       H  0.07548006  0.79079023  0.42205285     0.08200
H1773       H  0.04190152  0.78029674  0.42267514     0.08200
H1774       H  0.09239890  0.70869434  0.32135335     0.08100
H1775       H  0.05714291  0.70708604  0.31948429     0.08100
H1776       H  0.07423256  0.68707997  0.34233067     0.04900
C1777       C  0.10088005  0.88885578  0.14331869    -0.20900
C1778       C  0.11026363  0.87412342  0.16451982    -0.07500
C1779       C  0.13774084  0.87284410  0.16821781     0.13400
C1780       C  0.15455343  0.88810474  0.15251078    -0.20900
C1781       C  0.14516058  0.90356422  0.13187231    -0.07500
C1782       C  0.11797838  0.90259749  0.12642072     0.13400
C1783       C  0.10681937  0.91628174  0.10295001    -0.24300
H1784       H  0.08003780  0.88942161  0.13979336     0.14700
H1785       H  0.17528814  0.88819123  0.15669677     0.14700
C1786       C  0.15024787  0.85628366  0.18904660    -0.24200
H1787       H  0.08521754  0.91474481  0.10218470     0.04900
H1788       H  0.11484801  0.90749362  0.08499740     0.08200
H1789       H  0.11208129  0.93705263  0.10320863     0.08200
H1790       H  0.16265347  0.84129782  0.17977488     0.08100
H1791       H  0.13604515  0.84634616  0.20191067     0.08100
H1792       H  0.16284806  0.86863811  0.20136339     0.04900
C1793       C  0.07527490  0.98674922  0.10999558    -0.20900
C1794       C  0.09668951  0.98130429  0.12647871    -0.07500
C1795       C  0.09177007  0.97084174  0.15156423     0.13400
C1796       C  0.06610562  0.97075976  0.16071754    -0.20900
C1797       C  0.04667155  0.98434138  0.14684802    -0.07500
C1798       C  0.05005514  0.98801472  0.11997730     0.13400
C1799       C  0.02785181  0.99521818  0.10216582    -0.24300
H1800       H  0.07818464  0.99207335  0.08977723     0.14700
H1801       H  0.06263088  0.96501190  0.18077259     0.14700
C1802       C  0.11309835  0.96153721  0.16956738    -0.24200
H1803       H  0.02666704  0.98098309  0.08607703     0.04900
H1804       H  0.03117526  0.01486100  0.09377172     0.08200
H1805       H  0.00886379  0.99494867  0.11255250     0.08200
H1806       H  0.12497477  0.97826442  0.17607106     0.08100
H1807       H  0.12559349  0.94720653  0.15955982     0.08100
H1808       H  0.10509772  0.95201708  0.18732409     0.04900
C1809       C  0.24079537  0.87528555  0.54325011    -0.20900
C1810       C  0.23638393  0.89937146  0.53078598    -0.07500
C1811       C  0.22265485  0.89934765  0.50671726     0.13400
C1812       C  0.21455262  0.87556279  0.49573556    -0.20900
C1813       C  0.22025184  0.85159059  0.50761421    -0.07500
C1814       C  0.23356234  0.85153966  0.53170547     0.13400
C1815       C  0.23966294  0.82638305  0.54553566    -0.24300
H1816       H  0.25050178  0.87493291  0.56199899     0.14700
H1817       H  0.20325531  0.87561089  0.47794085     0.14700
C1818       C  0.21501832  0.92434279  0.49328022    -0.24200
H1819       H  0.25000905  0.82965475  0.56424267     0.04900
H1820       H  0.25232565  0.81421335  0.53304222     0.08200
H1821       H  0.22130596  0.81572841  0.54977302     0.08200
H1822       H  0.23263315  0.93449930  0.48587431     0.08100
H1823       H  0.20443473  0.93704697  0.50708119     0.08100
H1824       H  0.20184619  0.92092059  0.47650994     0.04900
C1825       C  0.34846630  0.92551215  0.50228022    -0.20900
C1826       C  0.32916862  0.91862380  0.52032242    -0.07500
C1827       C  0.32487513  0.89241087  0.52687975     0.13400
C1828       C  0.34038500  0.87359109  0.51560682    -0.20900
C1829       C  0.36076933  0.88044440  0.49890909    -0.07500
C1830       C  0.36469948  0.90666930  0.49158809     0.13400
C1831       C  0.38580858  0.91553602  0.47310235    -0.24300
H1832       H  0.35169238  0.94581064  0.49748080     0.14700
H1833       H  0.33764891  0.85347858  0.52144634     0.14700
C1834       C  0.30477848  0.88345882  0.54614279    -0.24200
H1835       H  0.37701412  0.92732706  0.45718303     0.04900
H1836       H  0.39629294  0.89926433  0.46381337     0.08200
H1837       H  0.40012455  0.92771928  0.48371006     0.08200
H1838       H  0.29223025  0.89943839  0.55281798     0.08100
H1839       H  0.31455040  0.87456301  0.56332543     0.08100
H1840       H  0.29227115  0.86859775  0.53684972     0.04900
C1841       C  0.37767693  0.90174705  0.37588951    -0.20900
C1842       C  0.35516121  0.91079615  0.38897701    -0.07500
C1843       C  0.34891746  0.89859869  0.41321246     0.13400
C1844       C  0.36397600  0.87755933  0.42247999    -0.20900
C1845       C  0.38608560  0.86829662  0.40932347    -0.07500
C1846       C  0.39329462  0.88107400  0.38588032     0.13400
C1847       C  0.41674197  0.87225513  0.37075280    -0.24300
H1848       H  0.38295581  0.91064368  0.35745278     0.14700
H1849       H  0.35844492  0.86823758  0.44063025     0.14700
C1850       C  0.32614551  0.90692207  0.42969702    -0.24200
H1851       H  0.41920445  0.88360918  0.35244849     0.04900
H1852       H  0.41454495  0.85147832  0.36558783     0.08200
H1853       H  0.43464529  0.87479089  0.38263058     0.08200
H1854       H  0.30780280  0.90482976  0.41862123     0.08100
H1855       H  0.32890115  0.92730577  0.43590440     0.08100
H1856       H  0.32415710  0.89496277  0.44767706     0.04900
C1857       C  0.12905330  0.98774951  0.28398844    -0.20900
C1858       C  0.15370761  0.99232398  0.27291072    -0.07500
C1859       C  0.15507305  0.00685865  0.24926315     0.13400
C1860       C  0.13217522  0.01731064  0.23831807    -0.20900
C1861       C  0.10780733  0.01338963  0.24995684    -0.07500
C1862       C  0.10617399  0.99796608  0.27279686     0.13400
C1863       C  0.08049876  0.99330269  0.28623474    -0.24300
H1864       H  0.12769603  0.97652823  0.30187289     0.14700
H1865       H  0.13332940  0.02912318  0.22078961     0.14700
C1866       C  0.18059264  0.01290018  0.23609807    -0.24200
H1867       H  0.08292124  0.98190648  0.30451972     0.04900
H1868       H  0.06733943  0.98217657  0.27327045     0.08200
H1869       H  0.07131599  0.01214396  0.29124899     0.08200
H1870       H  0.18999375  0.99473500  0.22939871     0.08100
H1871       H  0.19342479  0.02301907  0.25003669     0.08100
H1872       H  0.17808002  0.02575786  0.21881980     0.04900
C1873       C  0.24385638  0.03093397  0.19314817    -0.20900
C1874       C  0.25909022  0.01138655  0.18129675    -0.07500
C1875       C  0.28115526  0.00281606  0.19583903     0.13400
C1876       C  0.28526927  0.01148565  0.22218335    -0.20900
C1877       C  0.26785890  0.02865467  0.23501849    -0.07500
C1878       C  0.24846680  0.04011036  0.21882827     0.13400
C1879       C  0.23206840  0.06208539  0.22904059    -0.24300
H1880       H  0.22739371  0.03868483  0.18244301     0.14700
H1881       H  0.30045799  0.00239059  0.23367920     0.14700
C1882       C  0.29922957  0.98301051  0.18440335    -0.24200
H1883       H  0.21725515  0.06857574  0.21459063     0.04900
H1884       H  0.24491622  0.07882714  0.23345714     0.08200
H1885       H  0.22179019  0.05642878  0.24714975     0.08200
H1886       H  0.30821398  0.99097302  0.16637289     0.08100
H1887       H  0.28817227  0.96513818  0.17962150     0.08100
H1888       H  0.31512011  0.97770873  0.19816759     0.04900
C1889       C  0.21985864  0.02336230  0.43949217    -0.20900
C1890       C  0.24379604  0.03333729  0.43010061    -0.07500
C1891       C  0.25920114  0.04704272  0.44858813     0.13400
C1892       C  0.25144537  0.04852651  0.47540027    -0.20900
C1893       C  0.22891720  0.03586965  0.48522761    -0.07500
C1894       C  0.21240381  0.02438727  0.46623186     0.13400
C1895       C  0.18712938  0.01184209  0.47446008    -0.24300
H1896       H  0.20769457  0.01265238  0.42607340     0.14700
H1897       H  0.26473569  0.05718694  0.48919323     0.14700
C1898       C  0.28496716  0.05878652  0.44100822    -0.24200
H1899       H  0.17606234  0.00435606  0.45750168     0.04900
H1900       H  0.17473517  0.02634759  0.48447450     0.08200
H1901       H  0.19084435  0.99524922  0.48784214     0.08200
H1902       H  0.28922095  0.05646784  0.41997936     0.08100
H1903       H  0.30085952  0.04940478  0.45237609     0.08100
H1904       H  0.28475786  0.07987776  0.44531033     0.04900
C1905       C  0.21439730  0.85209679  0.41573749    -0.20900
C1906       C  0.22347602  0.82935295  0.40406825    -0.07500
C1907       C  0.24763782  0.82931356  0.39096991     0.13400
C1908       C  0.26176105  0.85236367  0.38920885    -0.20900
C1909       C  0.25213013  0.87560843  0.39961798    -0.07500
C1910       C  0.22845768  0.87531382  0.41382005     0.13400
C1911       C  0.21747093  0.89911844  0.42663896    -0.24300
H1912       H  0.19638654  0.85155049  0.42679867     0.14700
H1913       H  0.27996854  0.85247260  0.37847806     0.14700
C1914       C  0.25809728  0.80541958  0.37771074    -0.24200
H1915       H  0.19897193  0.89483650  0.43699036     0.04900
H1916       H  0.21276033  0.91421175  0.41202139     0.08200
H1917       H  0.23175318  0.90674017  0.44092117     0.08200
H1918       H  0.24329051  0.79779048  0.36395047     0.08100
H1919       H  0.26313886  0.79024236  0.39226934     0.08100
H1920       H  0.27609845  0.80969786  0.36645032     0.04900
C1921       C  0.18091864  0.91579952  0.24702441    -0.20900
C1922       C  0.20138840  0.89941279  0.25508775    -0.07500
C1923       C  0.19728781  0.87261659  0.25711941     0.13400
C1924       C  0.17188945  0.86341183  0.25591648    -0.20900
C1925       C  0.15054497  0.88051256  0.25295826    -0.07500
C1926       C  0.15521526  0.90685897  0.24668087     0.13400
C1927       C  0.13360128  0.92609584  0.24161203    -0.24300
H1928       H  0.18441238  0.93643442  0.24461290     0.14700
H1929       H  0.16879953  0.84273784  0.25855892     0.14700
C1930       C  0.21914906  0.85367443  0.26212477    -0.24200
H1931       H  0.12235155  0.92020176  0.22416397     0.04900
H1932       H  0.14122604  0.94594187  0.23776444     0.08200
H1933       H  0.12061510  0.92716995  0.25885514     0.08200
H1934       H  0.21647618  0.84427256  0.28147113     0.08100
H1935       H  0.23856520  0.86319934  0.26156740     0.08100
H1936       H  0.21898865  0.83851490  0.24687352     0.04900
C1937       C  0.26941979  0.97673633  0.94174064    -0.20900
C1938       C  0.24312805  0.97530593  0.93339334    -0.07500
C1939       C  0.22464238  0.96894919  0.95308713     0.13400
C1940       C  0.23231626  0.96651018  0.97989862    -0.20900
C1941       C  0.25821269  0.97080464  0.98857602    -0.07500
C1942       C  0.27699013  0.97497666  0.96857473     0.13400
C1943       C  0.30515358  0.97898175  0.97574888    -0.24300
H1944       H  0.28407655  0.98134512  0.92733297     0.14700
H1945       H  0.21729317  0.96445538  0.99452813     0.14700
C1946       C  0.19630444  0.96634647  0.94599465    -0.24200
H1947       H  0.31760563  0.98162740  0.95823963     0.04900
H1948       H  0.31238656  0.96178696  0.98674958     0.08200
H1949       H  0.30719053  0.99650274  0.98802652     0.08200
H1950       H  0.19395453  0.95073746  0.93137457     0.08100
H1951       H  0.18898871  0.98491163  0.93766491     0.08100
H1952       H  0.18416305  0.96135875  0.96321914     0.04900
C1953       C  0.21635835  0.01905562  0.72984804    -0.20900
C1954       C  0.21633197  0.99250616  0.73711593    -0.07500
C1955       C  0.21553154  0.97463852  0.71606938     0.13400
C1956       C  0.21579751  0.98343708  0.68945557    -0.20900
C1957       C  0.21791124  0.00998215  0.68226691    -0.07500
C1958       C  0.21750189  0.02782857  0.70336590     0.13400
C1959       C  0.22043359  0.05655330  0.69865578    -0.24300
H1960       H  0.21863537  0.03329812  0.74507453     0.14700
H1961       H  0.21706475  0.96916984  0.67413401     0.14700
C1962       C  0.21599045  0.94595707  0.72168361    -0.24200
H1963       H  0.20372288  0.06693562  0.70755124     0.04900
H1964       H  0.22084028  0.06159584  0.67762192     0.08200
H1965       H  0.23881616  0.06347787  0.70773434     0.08200
H1966       H  0.19888891  0.94062517  0.73384198     0.08100
H1967       H  0.23415214  0.94074576  0.73228187     0.08100
H1968       H  0.21522716  0.93439319  0.70352321     0.04900
C1969       C  0.87183185  0.52215499  0.25485937    -0.20900
C1970       C  0.89549695  0.52035790  0.24132669    -0.07500
C1971       C  0.89637018  0.50621307  0.21789149     0.13400
C1972       C  0.87349470  0.49453539  0.20842817    -0.20900
C1973       C  0.84962976  0.49617856  0.22189197    -0.07500
C1974       C  0.84899281  0.51001400  0.24574191     0.13400
C1975       C  0.82440467  0.51270005  0.26156607    -0.24300
H1976       H  0.87134582  0.53283299  0.27296804     0.14700
H1977       H  0.87428062  0.48407795  0.19021275     0.14700
C1978       C  0.92117388  0.50412956  0.20229769    -0.24200
H1979       H  0.82744579  0.52503595  0.27895203     0.04900
H1980       H  0.81802878  0.49332594  0.26863703     0.08200
H1981       H  0.80879199  0.52177920  0.24958443     0.08200
H1982       H  0.93621911  0.49350799  0.21369042     0.08100
H1983       H  0.92848439  0.52384454  0.19732597     0.08100
H1984       H  0.91808095  0.49344764  0.18383981     0.04900
C1985       C  0.83818338  0.40924464  0.21537210    -0.20900
C1986       C  0.81603514  0.39617770  0.22464361    -0.07500
C1987       C  0.81821179  0.37808152  0.24504641     0.13400
C1988       C  0.84305925  0.37170003  0.25427151    -0.20900
C1989       C  0.86564834  0.38366762  0.24406969    -0.07500
C1990       C  0.86304861  0.40352164  0.22508718     0.13400
C1991       C  0.88617599  0.41801092  0.21413727    -0.24300
H1992       H  0.83596436  0.42387882  0.20023531     0.14700
H1993       H  0.84486067  0.35669288  0.26906713     0.14700
C1994       C  0.79452672  0.36481988  0.25627661    -0.24200
H1995       H  0.88023066  0.43256123  0.19920590     0.04900
H1996       H  0.89985184  0.40424473  0.20475247     0.08200
H1997       H  0.89629599  0.42859920  0.22996549     0.08200
H1998       H  0.78404686  0.35419324  0.24071188     0.08100
H1999       H  0.78126754  0.37948658  0.26485416     0.08100
H2000       H  0.79985784  0.35069897  0.27184118     0.04900
C2001       C  0.85690146  0.66865447  0.63032116    -0.20900
C2002       C  0.88002144  0.66086048  0.61778732    -0.07500
C2003       C  0.88782283  0.63444360  0.62057310     0.13400
C2004       C  0.87113953  0.61639051  0.63317363    -0.20900
C2005       C  0.84778805  0.62419292  0.64504967    -0.07500
C2006       C  0.84147859  0.65094475  0.64480583     0.13400
C2007       C  0.81854533  0.66084438  0.66008083    -0.24300
H2008       H  0.85093847  0.68880243  0.62894316     0.14700
H2009       H  0.87641417  0.59602473  0.63387150     0.14700
C2010       C  0.91327979  0.62480399  0.60960135    -0.24200
H2011       H  0.81482038  0.68176542  0.65621968     0.04900
H2012       H  0.82245254  0.65823687  0.68119658     0.08200
H2013       H  0.80076490  0.64974257  0.65522243     0.08200
H2014       H  0.92976364  0.63461926  0.61951609     0.08100
H2015       H  0.91431340  0.62887075  0.58839107     0.08100
H2016       H  0.91570007  0.60355923  0.61256387     0.04900
C2017       C  0.76756635  0.66169528  0.61677414    -0.20900
C2018       C  0.74668321  0.65474484  0.63302172    -0.07500
C2019       C  0.72700688  0.67302212  0.63871975     0.13400
C2020       C  0.72866575  0.69771799  0.62770613    -0.20900
C2021       C  0.74906323  0.70445386  0.61081352    -0.07500
C2022       C  0.76947754  0.68671364  0.60631539     0.13400
C2023       C  0.79372374  0.69439814  0.59163891    -0.24300
H2024       H  0.78289606  0.64774146  0.61291923     0.14700
H2025       H  0.71291143  0.71125776  0.63100135     0.14700
C2026       C  0.70329203  0.66626873  0.65486052    -0.24200
H2027       H  0.80825416  0.67839943  0.59121890     0.04900
H2028       H  0.80292252  0.71129669  0.60130390     0.08200
H2029       H  0.78908405  0.69963147  0.57125285     0.08200
H2030       H  0.70889329  0.66282745  0.67545127     0.08100
H2031       H  0.69369635  0.64869793  0.64690508     0.08100
H2032       H  0.68867576  0.68219493  0.65474780     0.04900
C2033       C  0.77746661  0.63129711  0.49445776    -0.20900
C2034       C  0.76629200  0.61995961  0.47223857    -0.07500
C2035       C  0.74356824  0.63158180  0.46143048     0.13400
C2036       C  0.73272157  0.65378002  0.47310291    -0.20900
C2037       C  0.74399692  0.66531286  0.49512735    -0.07500
C2038       C  0.76690376  0.65392127  0.50577019     0.13400
C2039       C  0.77988236  0.66494521  0.52954272    -0.24300
H2040       H  0.79475058  0.62250679  0.50290880     0.14700
H2041       H  0.71523308  0.66233169  0.46481525     0.14700
C2042       C  0.72989743  0.62019966  0.43813090    -0.24200
H2043       H  0.79669108  0.65291748  0.53604681     0.04900
H2044       H  0.78739565  0.68469878  0.52515335     0.08200
H2045       H  0.76564093  0.66577255  0.54579501     0.08200
H2046       H  0.72480818  0.59959843  0.44211278     0.08100
H2047       H  0.74262842  0.62151500  0.42071410     0.08100
H2048       H  0.71155918  0.63072909  0.43343460     0.04900
C2049       C  0.86261225  0.41297109  0.35052599    -0.20900
C2050       C  0.86636906  0.41588240  0.37749307    -0.07500
C2051       C  0.88903091  0.40396901  0.38860562     0.13400
C2052       C  0.90644824  0.38951857  0.37268321    -0.20900
C2053       C  0.90271707  0.38741978  0.34564749    -0.07500
C2054       C  0.88040810  0.39952700  0.33471998     0.13400
C2055       C  0.87475011  0.39774337  0.30616185    -0.24300
H2056       H  0.84575997  0.42182840  0.34134268     0.14700
H2057       H  0.92349521  0.38043622  0.38128524     0.14700
C2058       C  0.89552391  0.40664812  0.41705674    -0.24200
H2059       H  0.85596484  0.40710757  0.30078257     0.04900
H2060       H  0.87358149  0.37695407  0.30093271     0.08200
H2061       H  0.89039127  0.40756905  0.29490366     0.08200
H2062       H  0.87942114  0.39862451  0.42910348     0.08100
H2063       H  0.89874525  0.42739788  0.42178910     0.08100
H2064       H  0.91361562  0.39597403  0.42232913     0.04900
C2065       C  0.71931074  0.49685571  0.32159537    -0.20900
C2066       C  0.74080088  0.50916519  0.33312060    -0.07500
C2067       C  0.75570343  0.52597571  0.31647049     0.13400
C2068       C  0.75029128  0.52814216  0.28925679    -0.20900
C2069       C  0.73022385  0.51396341  0.27719360    -0.07500
C2070       C  0.71392646  0.49899469  0.29435184     0.13400
C2071       C  0.69135010  0.48372374  0.28369571    -0.24300
H2072       H  0.70784500  0.48370549  0.33352016     0.14700
H2073       H  0.76354854  0.53917458  0.27701569     0.14700
C2074       C  0.77861244  0.54116920  0.32654246    -0.24200
H2075       H  0.67981974  0.47429203  0.29943619     0.04900
H2076       H  0.69845209  0.46815063  0.27074855     0.08200
H2077       H  0.67813898  0.49693652  0.27276221     0.08200
H2078       H  0.79663022  0.53517905  0.31628654     0.08100
H2079       H  0.78167216  0.53852857  0.34774065     0.08100
H2080       H  0.77530666  0.56212932  0.32263387     0.04900
C2081       C  0.77199045  0.47462017  0.54519286    -0.20900
C2082       C  0.75378260  0.48936396  0.53025388    -0.07500
C2083       C  0.73742797  0.50620310  0.54450055     0.13400
C2084       C  0.74160596  0.51015949  0.57160872    -0.20900
C2085       C  0.76178816  0.49765049  0.58595042    -0.07500
C2086       C  0.77612762  0.47849097  0.57247975     0.13400
C2087       C  0.79722436  0.46354637  0.58632466    -0.24300
H2088       H  0.78510518  0.46184473  0.53488408     0.14700
H2089       H  0.72991861  0.52461562  0.58134973     0.14700
C2090       C  0.71672812  0.52171108  0.53055323    -0.24200
H2091       H  0.80702682  0.44961311  0.57315401     0.04900
H2092       H  0.78864097  0.45240995  0.60281094     0.08200
H2093       H  0.81217396  0.47713716  0.59390942     0.08200
H2094       H  0.70293007  0.50829990  0.52078927     0.08100
H2095       H  0.72578107  0.53462492  0.51570748     0.08100
H2096       H  0.70543812  0.53399796  0.54419071     0.04900
C2097       C  0.85184724  0.63443705  0.49532402    -0.20900
C2098       C  0.85961241  0.63230622  0.52135671    -0.07500
C2099       C  0.86552956  0.60776548  0.53208581     0.13400
C2100       C  0.86678193  0.58638079  0.51577988    -0.20900
C2101       C  0.86180371  0.58888786  0.48907214    -0.07500
C2102       C  0.85336242  0.61305674  0.47878262     0.13400
C2103       C  0.84632777  0.61676713  0.45053399    -0.24300
H2104       H  0.84696599  0.65333891  0.48728978     0.14700
H2105       H  0.87179969  0.56757656  0.52401585     0.14700
C2106       C  0.87085887  0.60367694  0.56061305    -0.24200
H2107       H  0.83987433  0.63693552  0.44623101     0.04900
H2108       H  0.83010369  0.60366941  0.44539956     0.08200
H2109       H  0.86349374  0.61266612  0.43808725     0.08200
H2110       H  0.86794275  0.62169539  0.57187326     0.08100
H2111       H  0.89114528  0.59662237  0.56333805     0.08100
H2112       H  0.85718165  0.58890812  0.56855689     0.04900
C2113       C  0.91975183  0.46702732  0.37296077    -0.20900
C2114       C  0.89848618  0.47543582  0.35765855    -0.07500
C2115       C  0.89956667  0.47183225  0.33031545     0.13400
C2116       C  0.92363659  0.46533203  0.31919690    -0.20900
C2117       C  0.94621995  0.46652934  0.33451920    -0.07500
C2118       C  0.94380711  0.46208676  0.36134660     0.13400
C2119       C  0.96750105  0.45645961  0.37771752    -0.24300
H2120       H  0.91837760  0.46678856  0.39402012     0.14700
H2121       H  0.92552688  0.46604510  0.29819547     0.14700
C2122       C  0.87670645  0.47690424  0.31252611    -0.24200
H2123       H  0.96241454  0.45443567  0.39865636     0.04900
H2124       H  0.98200327  0.47233469  0.37564342     0.08200
H2125       H  0.97650629  0.43801243  0.37123857     0.08200
H2126       H  0.87056027  0.49751165  0.31384251     0.08100
H2127       H  0.86034693  0.46389095  0.31792739     0.08100
H2128       H  0.88158521  0.47305331  0.29183710     0.04900
C2129       C  0.75093187  0.55318170  0.03646952    -0.20900
C2130       C  0.77316067  0.53933166  0.02812116    -0.07500
C2131       C  0.78861086  0.52798393  0.04823072     0.13400
C2132       C  0.78024455  0.52838062  0.07471116    -0.20900
C2133       C  0.75598606  0.53874449  0.08248568    -0.07500
C2134       C  0.74179642  0.55224836  0.06281602     0.13400
C2135       C  0.71591482  0.56427324  0.06934394    -0.24300
H2136       H  0.73883990  0.56213206  0.02175772     0.14700
H2137       H  0.79171740  0.51813410  0.08905834     0.14700
C2138       C  0.81351336  0.51383348  0.04205585    -0.24200
H2139       H  0.70709529  0.57418942  0.05220061     0.04900
H2140       H  0.71859730  0.57883209  0.08495233     0.08200
H2141       H  0.70211527  0.54908033  0.07617178     0.08200
H2142       H  0.81864258  0.51515827  0.02109944     0.08100
H2143       H  0.81151801  0.49303298  0.04751462     0.08100
H2144       H  0.82982763  0.52242587  0.05332734     0.04900
C2145       C  0.79273114  0.49341602  0.82674539    -0.20900
C2146       C  0.78920763  0.51984328  0.83317198    -0.07500
C2147       C  0.79036776  0.53789820  0.81207571     0.13400
C2148       C  0.79356806  0.52928972  0.78596063    -0.20900
C2149       C  0.79484092  0.50280191  0.77925514    -0.07500
C2150       C  0.79494479  0.48478169  0.80039718     0.13400
C2151       C  0.79579999  0.45614115  0.79502978    -0.24300
H2152       H  0.79114838  0.47910051  0.84221027     0.14700
H2153       H  0.79142926  0.54332563  0.77034553     0.14700
C2154       C  0.78610272  0.56642923  0.81676943    -0.24200
H2155       H  0.79580332  0.44448002  0.81331502     0.04900
H2156       H  0.81380484  0.45147746  0.78401672     0.08200
H2157       H  0.77852266  0.45039989  0.78336950     0.08200
H2158       H  0.80074721  0.57356949  0.83094511     0.08100
H2159       H  0.76621665  0.56983476  0.82453997     0.08100
H2160       H  0.78808661  0.57803797  0.79855465     0.04900
C2161       C  0.13137156  0.11824152  0.91498314    -0.20900
C2162       C  0.13888757  0.14453331  0.91331508    -0.07500
C2163       C  0.15921769  0.15105371  0.89574669     0.13400
C2164       C  0.17157627  0.13135620  0.88092235    -0.20900
C2165       C  0.16509993  0.10485759  0.88381588    -0.07500
C2166       C  0.14453890  0.09843653  0.90118660     0.13400
C2167       C  0.13613435  0.07065601  0.90502882    -0.24300
H2168       H  0.11563030  0.11296957  0.92805389     0.14700
H2169       H  0.18712107  0.13661392  0.86763018     0.14700
C2170       C  0.16758659  0.17883996  0.89218520    -0.24200
H2171       H  0.11916195  0.06905833  0.91837108     0.04900
H2172       H  0.15230973  0.05913124  0.91362585     0.08200
H2173       H  0.13047036  0.06221560  0.88601676     0.08200
H2174       H  0.17557380  0.18642136  0.91071581     0.08100
H2175       H  0.15061081  0.19082141  0.88608430     0.08100
H2176       H  0.18293799  0.18079779  0.87705949     0.04900
C2177       C  0.03987328  0.23389728  0.13790235    -0.20900
C2178       C  0.02932544  0.23976500  0.11329308    -0.07500
C2179       C  0.00842181  0.25774672  0.11149263     0.13400
C2180       C  0.00024059  0.27081588  0.13394151    -0.20900
C2181       C  0.01141532  0.26558885  0.15834240    -0.07500
C2182       C  0.03076549  0.24604259  0.16053499     0.13400
C2183       C  0.04247498  0.23834802  0.18643893    -0.24300
H2184       H  0.05541253  0.21968763  0.13941506     0.14700
H2185       H  0.98481520  0.28515460  0.13248302     0.14700
C2186       C  0.99505550  0.26396263  0.08601646    -0.24200
H2187       H  0.05822744  0.22371889  0.18422955     0.04900
H2188       H  0.02727931  0.22957534  0.19913466     0.08200
H2189       H  0.05094291  0.25563541  0.19606700     0.08200
H2190       H  0.98542665  0.24629596  0.07834348     0.08100
H2191       H  0.00950061  0.27136117  0.07169789     0.08100
H2192       H  0.97971218  0.27900840  0.08827254     0.04900
C2193       C  0.11645878  0.07548193  0.97730410    -0.20900
C2194       C  0.13437332  0.09630993  0.97835207    -0.07500
C2195       C  0.16072101  0.09145630  0.97174538     0.13400
C2196       C  0.16901806  0.06559986  0.97031387    -0.20900
C2197       C  0.15225777  0.04568895  0.97870023    -0.07500
C2198       C  0.12531078  0.04996773  0.97753423     0.13400
C2199       C  0.10606199  0.02810709  0.98025543    -0.24300
H2200       H  0.09565515  0.07882316  0.97906457     0.14700
H2201       H  0.18970270  0.06168089  0.96852108     0.14700
C2202       C  0.18053340  0.11272975  0.96818904    -0.24200
H2203       H  0.09282035  0.02808575  0.96313454     0.04900
H2204       H  0.09427587  0.03069656  0.99817509     0.08200
H2205       H  0.11606967  0.00900062  0.98129510     0.08200
H2206       H  0.18343069  0.12326129  0.98673359     0.08100
H2207       H  0.17379473  0.12629400  0.95275617     0.08100
H2208       H  0.19981262  0.10500118  0.96213889     0.04900
C2209       C  0.97980345  0.11163631  0.09658369    -0.20900
C2210       C  0.97954110  0.13006860  0.11672824    -0.07500
C2211       C  0.98031778  0.15672763  0.11020532     0.13400
C2212       C  0.98641286  0.16375460  0.08461036    -0.20900
C2213       C  0.99285668  0.14473560  0.06626550    -0.07500
C2214       C  0.98758770  0.11854100  0.07156061     0.13400
C2215       C  0.99146659  0.09746699  0.05177759    -0.24300
H2216       H  0.97662311  0.09128606  0.10071464     0.14700
H2217       H  0.98945409  0.18408778  0.07991997     0.14700
C2218       C  0.97568351  0.17777620  0.12983879    -0.24200
H2219       H  0.97295361  0.08657578  0.04926446     0.04900
H2220       H  0.00685747  0.08385640  0.05864082     0.08200
H2221       H  0.99716571  0.10531511  0.03244839     0.08200
H2222       H  0.99183137  0.17840401  0.14417334     0.08100
H2223       H  0.95679934  0.17418577  0.13973648     0.08100
H2224       H  0.97465718  0.19725946  0.12046054     0.04900
C2225       C  0.28262334  0.12736691  0.00484624    -0.20900
C2226       C  0.27075752  0.15181961  0.00755744    -0.07500
C2227       C  0.24751674  0.15365210  0.02246079     0.13400
C2228       C  0.23651544  0.13101234  0.03340203    -0.20900
C2229       C  0.24834790  0.10669962  0.03030659    -0.07500
C2230       C  0.27199068  0.10497036  0.01633448     0.13400
C2231       C  0.28676142  0.07972081  0.01453080    -0.24300
H2232       H  0.30059911  0.12572901  0.99388700     0.14700
H2233       H  0.21869352  0.13228157  0.04467046     0.14700
C2234       C  0.23492508  0.17937758  0.02826219    -0.24200
H2235       H  0.30556339  0.08213200  0.00405558     0.04900
H2236       H  0.27504710  0.06518440  0.00383652     0.08200
H2237       H  0.29112903  0.07222969  0.03440577     0.08200
H2238       H  0.22763852  0.18858482  0.01008830     0.08100
H2239       H  0.24923043  0.19241823  0.03778381     0.08100
H2240       H  0.21818439  0.17701405  0.04171705     0.04900
C2241       C  0.22094214  0.25671483  0.04349821    -0.20900
C2242       C  0.23574259  0.27439836  0.02861227    -0.07500
C2243       C  0.22134250  0.28977875  0.01039955     0.13400
C2244       C  0.19465010  0.28363525  0.00418562    -0.20900
C2245       C  0.18139748  0.26270829  0.01635193    -0.07500
C2246       C  0.19456649  0.25084169  0.03778811     0.13400
C2247       C  0.18153878  0.23107753  0.05496989    -0.24300
H2248       H  0.23094063  0.24503666  0.05806937     0.14700
H2249       H  0.18498308  0.29388373  0.98841798     0.14700
C2250       C  0.23483278  0.31132162  0.99597737    -0.24200
H2251       H  0.19225750  0.21244605  0.05413824     0.04900
H2252       H  0.16103466  0.22768385  0.04934400     0.08200
H2253       H  0.18169558  0.23802521  0.07538107     0.08200
H2254       H  0.25138627  0.30330486  0.98482518     0.08100
H2255       H  0.24231196  0.32577784  0.01006900     0.08100
H2256       H  0.22146023  0.32136549  0.98217440     0.04900
C2257       C  0.23396710  0.14344684  0.91010423    -0.20900
C2258       C  0.24122757  0.14079307  0.88389696    -0.07500
C2259       C  0.24182963  0.16334935  0.86779380     0.13400
C2260       C  0.24100622  0.18771144  0.87944476    -0.20900
C2261       C  0.23992901  0.18992065  0.90651728    -0.07500
C2262       C  0.23234997  0.16800397  0.92144418     0.13400
C2263       C  0.22360237  0.16950167  0.94936735    -0.24300
H2264       H  0.23066292  0.12639043  0.92215377     0.14700
H2265       H  0.24494223  0.20489222  0.86775084     0.14700
C2266       C  0.24444957  0.16240208  0.83859118    -0.24200
H2267       H  0.20424943  0.16013064  0.95119774     0.04900
H2268       H  0.22094910  0.18956886  0.95630988     0.08200
H2269       H  0.23764950  0.15910219  0.96213174     0.08200
H2270       H  0.24097231  0.18171535  0.82946803     0.08100
H2271       H  0.22987690  0.14875904  0.83038285     0.08100
H2272       H  0.26453203  0.15652866  0.83328087     0.04900
C2273       C  0.62412594  0.38966922  0.07634017    -0.20900
C2274       C  0.62112377  0.36487732  0.08760396    -0.07500
C2275       C  0.62954201  0.36133128  0.11361915     0.13400
C2276       C  0.64185682  0.38196215  0.12710973    -0.20900
C2277       C  0.64669443  0.40637493  0.11523010    -0.07500
C2278       C  0.63666773  0.41029083  0.08960933     0.13400
C2279       C  0.63874855  0.43620365  0.07601994    -0.24300
H2280       H  0.61720368  0.39273283  0.05662757     0.14700
H2281       H  0.64895650  0.37844481  0.14669591     0.14700
C2282       C  0.62578195  0.33555289  0.12704647    -0.24200
H2283       H  0.62730331  0.43663277  0.05768095     0.04900
H2284       H  0.65935179  0.44027190  0.07090284     0.08200
H2285       H  0.63101862  0.45172573  0.08876551     0.08200
H2286       H  0.63645680  0.32023076  0.11633578     0.08100
H2287       H  0.60468981  0.33063572  0.12753315     0.08100
H2288       H  0.63314139  0.33582061  0.14739072     0.04900
C2289       C  0.46609707  0.21755171  0.02494325    -0.20900
C2290       C  0.48415611  0.23580229  0.03458374    -0.07500
C2291       C  0.47324540  0.26012362  0.04224495     0.13400
C2292       C  0.44625052  0.26622501  0.03750033    -0.20900
C2293       C  0.42895944  0.24864143  0.02539743    -0.07500
C2294       C  0.43933318  0.22349100  0.02039144     0.13400
C2295       C  0.42290534  0.20248790  0.00871202    -0.24300
H2296       H  0.47343395  0.19887832  0.01866215     0.14700
H2297       H  0.43921098  0.28562743  0.04143419     0.14700
C2298       C  0.49050005  0.28078606  0.05323243    -0.24200
H2299       H  0.43131892  0.19668242  0.98971715     0.04900
H2300       H  0.40256774  0.20883899  0.00556676     0.08200
H2301       H  0.42259997  0.18536184  0.02197024     0.08200
H2302       H  0.50489924  0.28704246  0.03840722     0.08100
H2303       H  0.50071939  0.27294074  0.07062494     0.08100
H2304       H  0.47916367  0.29811127  0.05924861     0.04900
C2305       C  0.62097233  0.41151645  0.00164257    -0.20900
C2306       C  0.63676871  0.38916248  0.00293924    -0.07500
C2307       C  0.66371422  0.39212479  0.00896451     0.13400
C2308       C  0.67427078  0.41708517  0.01029066    -0.20900
C2309       C  0.65906461  0.43890017  0.00439254    -0.07500
C2310       C  0.63179468  0.43631852  0.00261572     0.13400
C2311       C  0.61389432  0.45944094  0.00063488    -0.24300
H2312       H  0.60006415  0.40984888  0.99898766     0.14700
H2313       H  0.69521111  0.41924246  0.01243982     0.14700
C2314       C  0.68212708  0.36960391  0.01259427    -0.24200
H2315       H  0.59911283  0.45836780  0.01638989     0.04900
H2316       H  0.60373972  0.45940853  0.98152780     0.08200
H2317       H  0.62454533  0.47805797  0.00285781     0.08200
H2318       H  0.68320711  0.35811955  0.99442766     0.08100
H2319       H  0.67533761  0.35746565  0.02910590     0.08100
H2320       H  0.70229409  0.37597821  0.01727499     0.04900
C2321       C  0.79716798  0.38072430  0.00742290    -0.20900
C2322       C  0.78464632  0.35695415  0.00243835    -0.07500
C2323       C  0.76144104  0.35721429  0.98724622     0.13400
C2324       C  0.75221812  0.38089396  0.97678746    -0.20900
C2325       C  0.76480882  0.40452376  0.98191587    -0.07500
C2326       C  0.78724362  0.40444395  0.99791514     0.13400
C2327       C  0.80121282  0.42930427  0.00446510    -0.24300
H2328       H  0.81475507  0.38083242  0.01912947     0.14700
H2329       H  0.73488904  0.38103538  0.96466142     0.14700
C2330       C  0.74659040  0.33268175  0.98125365    -0.24200
H2331       H  0.81898652  0.42565392  0.01631945     0.04900
H2332       H  0.78816557  0.44208970  0.01589493     0.08200
H2333       H  0.80719955  0.43948505  0.98629693     0.08200
H2334       H  0.73845663  0.32420921  0.99945201     0.08100
H2335       H  0.75967834  0.31843553  0.97174531     0.08100
H2336       H  0.72991412  0.33643210  0.96792275     0.04900
C2337       C  0.88083532  0.16730227  0.14889912    -0.20900
C2338       C  0.88482346  0.16229974  0.12224080    -0.07500
C2339       C  0.90153754  0.14154029  0.11549118     0.13400
C2340       C  0.91411001  0.12692719  0.13529381    -0.20900
C2341       C  0.91159997  0.13316367  0.16185342    -0.07500
C2342       C  0.89437265  0.15346564  0.16864778     0.13400
C2343       C  0.88979170  0.16022685  0.19674320    -0.24300
H2344       H  0.86772610  0.18284493  0.15431019     0.14700
H2345       H  0.92687258  0.11110480  0.12989121     0.14700
C2346       C  0.90596307  0.13452861  0.08743172    -0.24200
H2347       H  0.87515335  0.17597486  0.19874034     0.04900
H2348       H  0.90819340  0.16691208  0.20586456     0.08200
H2349       H  0.88249886  0.14288820  0.20744369     0.08200
H2350       H  0.91554062  0.15088681  0.07702151     0.08100
H2351       H  0.88700413  0.13011786  0.07796193     0.08100
H2352       H  0.91875300  0.11723609  0.08557567     0.04900
C2353       C  0.94875401  0.23462568  0.97705136    -0.20900
C2354       C  0.93289679  0.24782304  0.99515186    -0.07500
C2355       C  0.94451355  0.26993644  0.00715013     0.13400
C2356       C  0.97138321  0.27586562  0.00370944    -0.20900
C2357       C  0.98816256  0.26090604  0.98811793    -0.07500
C2358       C  0.97580370  0.24111370  0.97319995     0.13400
C2359       C  0.99178375  0.22472828  0.95529440    -0.24300
H2360       H  0.94070243  0.21775878  0.96748161     0.14700
H2361       H  0.97988014  0.29118078  0.01535863     0.14700
C2362       C  0.92940212  0.28750077  0.02489312    -0.24200
H2363       H  0.97947149  0.21080546  0.94436675     0.04900
H2364       H  0.00616097  0.21338840  0.96676679     0.08200
H2365       H  0.00207287  0.23735615  0.94101263     0.08200
H2366       H  0.93828615  0.28728034  0.04459190     0.08100
H2367       H  0.90861078  0.28206157  0.02655916     0.08100
H2368       H  0.93037183  0.30764191  0.01715021     0.04900
C2369       C  0.69649037  0.21385820  0.02272497    -0.20900
C2370       C  0.68083673  0.23248220  0.00954843    -0.07500
C2371       C  0.69327678  0.24611593  0.98862503     0.13400
C2372       C  0.72021858  0.24300062  0.98338041    -0.20900
C2373       C  0.73656144  0.22643698  0.99796839    -0.07500
C2374       C  0.72377220  0.21039515  0.01677770     0.13400
C2375       C  0.73936226  0.19066956  0.03162578    -0.24300
H2376       H  0.68789229  0.20303350  0.03870481     0.14700
H2377       H  0.72909244  0.25546610  0.96874976     0.14700
C2378       C  0.67909460  0.26564156  0.97184133    -0.24200
H2379       H  0.72737573  0.18037333  0.04644858     0.04900
H2380       H  0.75571197  0.20053748  0.04147038     0.08200
H2381       H  0.74739717  0.17613647  0.01793978     0.08200
H2382       H  0.68739685  0.28525659  0.97499481     0.08100
H2383       H  0.65786702  0.26630416  0.97563741     0.08100
H2384       H  0.68195004  0.26061564  0.95107048     0.04900
C2385       C  0.76478830  0.38837424  0.07658927    -0.20900
C2386       C  0.73821979  0.38839111  0.08240858    -0.07500
C2387       C  0.72412134  0.36501118  0.08254297     0.13400
C2388       C  0.73783852  0.34167710  0.08242446    -0.20900
C2389       C  0.76522247  0.34169099  0.08256158    -0.07500
C2390       C  0.77889004  0.36524413  0.07789457     0.13400
C2391       C  0.80822974  0.36673452  0.07598466    -0.24300
H2392       H  0.77523987  0.40667849  0.07574048     0.14700
H2393       H  0.72720739  0.32355197  0.08411658     0.14700
C2394       C  0.69490414  0.36490255  0.08522709    -0.24200
H2395       H  0.81499934  0.38660142  0.07081353     0.04900
H2396       H  0.81540174  0.35341299  0.06079972     0.08200
H2397       H  0.81718643  0.36155176  0.09499567     0.08200
H2398       H  0.68608377  0.37751092  0.06997775     0.08100
H2399       H  0.68940528  0.37233718  0.10460170     0.08100
H2400       H  0.68669076  0.34505608  0.08331075     0.04900
C2401       C  0.91103675  0.22502937  0.16181444    -0.20900
C2402       C  0.88618714  0.23615374  0.15906216    -0.07500
C2403       C  0.86995733  0.23785986  0.18147756     0.13400
C2404       C  0.88139778  0.23511615  0.20601876    -0.20900
C2405       C  0.90840764  0.23237307  0.20792234    -0.07500
C2406       C  0.92166587  0.22156072  0.18658472     0.13400
C2407       C  0.94754550  0.20827374  0.18937741    -0.24300
H2408       H  0.92259212  0.22007312  0.14489150     0.14700
H2409       H  0.87034260  0.24035564  0.22318623     0.14700
C2410       C  0.84115281  0.24357117  0.18020730    -0.24200
H2411       H  0.94598729  0.18855441  0.18104372     0.04900
H2412       H  0.95319204  0.20579574  0.21009114     0.08200
H2413       H  0.96287767  0.21940552  0.17887379     0.08200
H2414       H  0.83159516  0.23022734  0.16628396     0.08100
H2415       H  0.83784930  0.26407478  0.17442957     0.08100
H2416       H  0.83163739  0.24070274  0.19943975     0.04900
C2417       C  0.64329854  0.63419186  0.84451250    -0.20900
C2418       C  0.61662981  0.62858039  0.84805480    -0.07500
C2419       C  0.60959600  0.61159599  0.86862447     0.13400
C2420       C  0.62924787  0.59943186  0.88374774    -0.20900
C2421       C  0.65590357  0.60233072  0.87780871    -0.07500
C2422       C  0.66296079  0.62086480  0.85863547     0.13400
C2423       C  0.69118240  0.62715374  0.85365018    -0.24300
H2424       H  0.64881488  0.64831445  0.82980852     0.14700
H2425       H  0.62367902  0.58623033  0.89930064     0.14700
C2426       C  0.58135053  0.60654884  0.87485959    -0.24200
H2427       H  0.69326716  0.64342353  0.83954334     0.04900
H2428       H  0.70139798  0.60995528  0.84573222     0.08200
H2429       H  0.70069829  0.63306508  0.87210926     0.08200
H2430       H  0.57164950  0.59691688  0.85820075     0.08100
H2431       H  0.57134132  0.62519236  0.87894219     0.08100
H2432       H  0.57915737  0.59375466  0.89221509     0.04900
C2433       C  0.47331990  0.72145859  0.60815699    -0.20900
C2434       C  0.48759726  0.74093042  0.59497036    -0.07500
C2435       C  0.51206072  0.74840969  0.60560355     0.13400
C2436       C  0.52124435  0.73652144  0.62875149    -0.20900
C2437       C  0.50722650  0.71672489  0.64148633    -0.07500
C2438       C  0.48285215  0.70916651  0.63094434     0.13400
C2439       C  0.46630711  0.68881367  0.64418565    -0.24300
H2440       H  0.45455972  0.71558553  0.60042907     0.14700
H2441       H  0.53966247  0.74270542  0.63697176     0.14700
C2442       C  0.52838591  0.76944031  0.59324846    -0.24200
H2443       H  0.44727278  0.68621267  0.63417998     0.04900
H2444       H  0.46234055  0.69457861  0.66459709     0.08200
H2445       H  0.47655516  0.66985172  0.64406827     0.08200
H2446       H  0.51669789  0.78730350  0.59093327     0.08100
H2447       H  0.53541044  0.76309078  0.57389395     0.08100
H2448       H  0.54568059  0.77434007  0.60530181     0.04900
C2449       C  0.67536605  0.63440990  0.78443026    -0.20900
C2450       C  0.65361157  0.61774131  0.78371607    -0.07500
C2451       C  0.65663980  0.59186249  0.79276512     0.13400
C2452       C  0.68186350  0.58175435  0.79447372    -0.20900
C2453       C  0.70318223  0.59712062  0.78729482    -0.07500
C2454       C  0.70033399  0.62421217  0.78758014     0.13400
C2455       C  0.72358571  0.64197421  0.78692673    -0.24300
H2456       H  0.67317269  0.65505936  0.78084106     0.14700
H2457       H  0.68404219  0.56088010  0.79512871     0.14700
C2458       C  0.63407102  0.57410002  0.79860522    -0.24200
H2459       H  0.72292144  0.65521284  0.80385513     0.04900
H2460       H  0.72334968  0.65385130  0.76883969     0.08200
H2461       H  0.74212290  0.63082816  0.78785972     0.08200
H2462       H  0.64097010  0.55555424  0.80733230     0.08100
H2463       H  0.62316451  0.56970558  0.78048600     0.08100
H2464       H  0.62096758  0.58318284  0.81309785     0.04900
C2465       C  0.59387573  0.73375762  0.65104445    -0.20900
C2466       C  0.60389003  0.74426625  0.67397162    -0.07500
C2467       C  0.61945836  0.76664355  0.67351464     0.13400
C2468       C  0.62603951  0.77723368  0.64941594    -0.20900
C2469       C  0.61739521  0.76578948  0.62616563    -0.07500
C2470       C  0.60034471  0.74424013  0.62692737     0.13400
C2471       C  0.59028458  0.73091271  0.60283160    -0.24300
H2472       H  0.58153937  0.71664860  0.65208038     0.14700
H2473       H  0.63894016  0.79391925  0.64877866     0.14700
C2474       C  0.63048663  0.77885761  0.69772833    -0.24200
H2475       H  0.57695132  0.71457894  0.60768200     0.04900
H2476       H  0.60677318  0.72278232  0.59162269     0.08200
H2477       H  0.57921556  0.74479027  0.59049649     0.08200
H2478       H  0.65212330  0.77867954  0.69674775     0.08100
H2479       H  0.62458902  0.76861049  0.71583432     0.08100
H2480       H  0.62375936  0.79927207  0.69906787     0.04900
C2481       C  0.62364569  0.45523285  0.73535120    -0.20900
C2482       C  0.60904826  0.46791142  0.75468220    -0.07500
C2483       C  0.61827321  0.49213128  0.76397315     0.13400
C2484       C  0.64127658  0.50302482  0.75354310    -0.20900
C2485       C  0.65517805  0.49084488  0.73351401    -0.07500
C2486       C  0.64635876  0.46640608  0.72456157     0.13400
C2487       C  0.66123286  0.45163729  0.70415117    -0.24300
H2488       H  0.61695531  0.43664680  0.72818544     0.14700
H2489       H  0.64813656  0.52157811  0.76065713     0.14700
C2490       C  0.60435734  0.50644552  0.78529216    -0.24200
H2491       H  0.65243699  0.43230229  0.70045664     0.04900
H2492       H  0.68166416  0.44857953  0.71070267     0.08200
H2493       H  0.66116570  0.46258735  0.68547305     0.08200
H2494       H  0.60174753  0.49341180  0.80230652     0.08100
H2495       H  0.58515753  0.51361232  0.77831327     0.08100
H2496       H  0.61555671  0.52344066  0.79191198     0.04900
C2497       C  0.41667217  0.34304036  0.86121778    -0.20900
C2498       C  0.40733806  0.36715241  0.85248918    -0.07500
C2499       C  0.38625595  0.37839457  0.86646181     0.13400
C2500       C  0.37494514  0.36483042  0.88791511    -0.20900
C2501       C  0.38539478  0.34123071  0.89742948    -0.07500
C2502       C  0.40741295  0.33108755  0.88417757     0.13400
C2503       C  0.42193380  0.30786399  0.89426804    -0.24300
H2504       H  0.43278685  0.33419364  0.85095399     0.14700
H2505       H  0.35809592  0.37297098  0.89761112     0.14700
C2506       C  0.37503070  0.40425998  0.85847469    -0.24200
H2507       H  0.43667862  0.30077134  0.88026997     0.04900
H2508       H  0.40829495  0.29195388  0.89755014     0.08200
H2509       H  0.43170461  0.31268036  0.91290491     0.08200
H2510       H  0.36897651  0.40370862  0.83772389     0.08100
H2511       H  0.38972837  0.41978664  0.86126503     0.08100
H2512       H  0.35768987  0.40936683  0.87033251     0.04900
C2513       C  0.51709393  0.52947253  0.76353309    -0.20900
C2514       C  0.49703202  0.51974152  0.74729480    -0.07500
C2515       C  0.47784116  0.53854289  0.73997928     0.13400
C2516       C  0.48005300  0.56544591  0.74840014    -0.20900
C2517       C  0.49938692  0.57391145  0.76663758    -0.07500
C2518       C  0.51635830  0.55380190  0.77586941     0.13400
C2519       C  0.53283223  0.55621167  0.80038343    -0.24300
H2520       H  0.53279521  0.51668022  0.76946684     0.14700
H2521       H  0.46634589  0.57968385  0.74098997     0.14700
C2522       C  0.45576827  0.53058956  0.72260253    -0.24200
H2523       H  0.54116716  0.53728766  0.80674122     0.04900
H2524       H  0.52048467  0.56315844  0.81666281     0.08200
H2525       H  0.54974102  0.56924441  0.79768793     0.08200
H2526       H  0.44414012  0.51514172  0.73233360     0.08100
H2527       H  0.46362406  0.52305228  0.70399314     0.08100
H2528       H  0.44264021  0.54719032  0.71816473     0.04900
C2529       C  0.58325259  0.50189100  0.85555888    -0.20900
C2530       C  0.58285096  0.47530146  0.85036349    -0.07500
C2531       C  0.60640948  0.46114961  0.84852951     0.13400
C2532       C  0.62990505  0.47396919  0.85296416    -0.20900
C2533       C  0.63004078  0.50013310  0.85980843    -0.07500
C2534       C  0.60671169  0.51448272  0.86028763     0.13400
C2535       C  0.60618175  0.54305312  0.86556638    -0.24300
H2536       H  0.56522281  0.51293040  0.85545569     0.14700
H2537       H  0.64804724  0.46312681  0.85296372     0.14700
C2538       C  0.60697591  0.43276078  0.84156351    -0.24200
H2539       H  0.59619608  0.55330110  0.84928349     0.04900
H2540       H  0.62613783  0.55110044  0.86698086     0.08200
H2541       H  0.59551455  0.54673222  0.88397809     0.08200
H2542       H  0.59763171  0.42982642  0.82230409     0.08100
H2543       H  0.59654321  0.42127551  0.85665486     0.08100
H2544       H  0.62722731  0.42519363  0.84040861     0.04900
C2545       C  0.48290714  0.32200230  0.88290268    -0.20900
C2546       C  0.47521363  0.34791018  0.88238156    -0.07500
C2547       C  0.46962513  0.36077679  0.90604051     0.13400
C2548       C  0.47936872  0.35022675  0.92915271    -0.20900
C2549       C  0.49154423  0.32604781  0.92882350    -0.07500
C2550       C  0.49052728  0.31061485  0.90624988     0.13400
C2551       C  0.50072687  0.28339555  0.90589597    -0.24300
H2552       H  0.48564419  0.31152068  0.86487459     0.14700
H2553       H  0.47868021  0.36133015  0.94699043     0.14700
C2554       C  0.45484002  0.38601651  0.90721713    -0.24200
H2555       H  0.49830325  0.27424177  0.88652257     0.04900
H2556       H  0.49009111  0.27130601  0.92037539     0.08200
H2557       H  0.52179175  0.28405726  0.91051106     0.08200
H2558       H  0.44639374  0.39160688  0.88809068     0.08100
H2559       H  0.46790957  0.40172797  0.91409768     0.08100
H2560       H  0.43828305  0.38390264  0.92099774     0.04900
C2561       C  0.50824902  0.20218100  0.87084862    -0.20900
C2562       C  0.51621104  0.21353264  0.84715559    -0.07500
C2563       C  0.53423997  0.23437578  0.84795516     0.13400
C2564       C  0.54467658  0.24224031  0.87212874    -0.20900
C2565       C  0.53651108  0.23100729  0.89590573    -0.07500
C2566       C  0.51749107  0.21104722  0.89507292     0.13400
C2567       C  0.50693557  0.19868605  0.91957409    -0.24300
H2568       H  0.49403071  0.18661195  0.87045460     0.14700
H2569       H  0.55869908  0.25797932  0.87253847     0.14700
C2570       C  0.54282749  0.24827785  0.82348664    -0.24200
H2571       H  0.49339594  0.18244186  0.91524822     0.04900
H2572       H  0.49584565  0.21321312  0.93095035     0.08200
H2573       H  0.52322219  0.19082721  0.93151169     0.08200
H2574       H  0.52593316  0.25828699  0.81431849     0.08100
H2575       H  0.55129900  0.23418445  0.80960342     0.08100
H2576       H  0.55783444  0.26325384  0.82759118     0.04900
C2577       C  0.40589355  0.09746917  0.63779983    -0.20900
C2578       C  0.39986946  0.11937863  0.65289681    -0.07500
C2579       C  0.37302019  0.12577810  0.65601480     0.13400
C2580       C  0.35339488  0.10967599  0.64526248    -0.20900
C2581       C  0.35953612  0.08804684  0.62995835    -0.07500
C2582       C  0.38633444  0.08220789  0.62590518     0.13400
C2583       C  0.39516308  0.05941219  0.60988485    -0.24300
H2584       H  0.42616988  0.09211531  0.63518499     0.14700
H2585       H  0.33302562  0.11440393  0.64829055     0.14700
C2586       C  0.36472383  0.14961104  0.67062902    -0.24200
H2587       H  0.40739035  0.04629738  0.62206929     0.04900
H2588       H  0.40700555  0.06648964  0.59319244     0.08200
H2589       H  0.37879132  0.04777222  0.60211983     0.08200
H2590       H  0.37127239  0.16722634  0.65992750     0.08100
H2591       H  0.37352720  0.14958503  0.69032157     0.08100
H2592       H  0.34319202  0.15075385  0.67276542     0.04900
C2593       C  0.53399092  0.28670011  0.73716219    -0.20900
C2594       C  0.52209430  0.26967026  0.71933051    -0.07500
C2595       C  0.50400450  0.28146619  0.70170980     0.13400
C2596       C  0.49628862  0.30826177  0.70449580    -0.20900
C2597       C  0.50654277  0.32455207  0.72419022    -0.07500
C2598       C  0.52660140  0.31314132  0.73992428     0.13400
C2599       C  0.53966939  0.32764809  0.76162603    -0.24300
H2600       H  0.54781951  0.27860458  0.75102148     0.14700
H2601       H  0.48075259  0.31588018  0.69235667     0.14700
C2602       C  0.49134709  0.26528264  0.68107045    -0.24200
H2603       H  0.56112069  0.32701557  0.75881365     0.04900
H2604       H  0.53487787  0.31832743  0.78059431     0.08200
H2605       H  0.53374588  0.34816626  0.76241034     0.08200
H2606       H  0.48060350  0.24897832  0.69023378     0.08100
H2607       H  0.50655030  0.25734424  0.66797062     0.08100
H2608       H  0.47740008  0.27679725  0.66912027     0.04900
C2609       C  0.38584787  0.25278611  0.81260171    -0.20900
C2610       C  0.41179479  0.24506220  0.81422757    -0.07500
C2611       C  0.42580911  0.24767606  0.83766972     0.13400
C2612       C  0.41223230  0.25358040  0.86015667    -0.20900
C2613       C  0.38533644  0.25827880  0.85944028    -0.07500
C2614       C  0.37245663  0.26035156  0.83490375     0.13400
C2615       C  0.34461535  0.26928675  0.83165588    -0.24300
H2616       H  0.37573554  0.25155554  0.79408662     0.14700
H2617       H  0.42255192  0.25277310  0.87856407     0.14700
C2618       C  0.45445985  0.24169742  0.83973558    -0.24200
H2619       H  0.33931572  0.27190451  0.81081665     0.04900
H2620       H  0.34186247  0.28831072  0.84131397     0.08200
H2621       H  0.33109132  0.25457729  0.83982635     0.08200
H2622       H  0.46566736  0.25462280  0.82644759     0.08100
H2623       H  0.45757494  0.22108933  0.83462315     0.08100
H2624       H  0.46210634  0.24464625  0.85975285     0.04900
C2625       C  0.34627679  0.11398133  0.72715458    -0.20900
C2626       C  0.36973361  0.10051450  0.73195792    -0.07500
C2627       C  0.36885946  0.07380139  0.73856871     0.13400
C2628       C  0.34465779  0.06277282  0.74454304    -0.20900
C2629       C  0.32200954  0.07795109  0.74406555    -0.07500
C2630       C  0.32229173  0.10275733  0.73284978     0.13400
C2631       C  0.29776925  0.11832977  0.72865652    -0.24300
H2632       H  0.34653808  0.13421664  0.72141353     0.14700
H2633       H  0.34383930  0.04331513  0.75273174     0.14700
C2634       C  0.39308175  0.05756197  0.74222267    -0.24200
H2635       H  0.29635594  0.12415068  0.70783131     0.04900
H2636       H  0.29830908  0.13603767  0.74082372     0.08200
H2637       H  0.27996356  0.10706717  0.73359180     0.08200
H2638       H  0.40528661  0.06565730  0.75807053     0.08100
H2639       H  0.40441334  0.05717936  0.72386486     0.08100
H2640       H  0.38831417  0.03715687  0.74752088     0.04900
C2641       C  0.40907382  0.98588702  0.78397570    -0.20900
C2642       C  0.40800976  0.96547618  0.76595733    -0.07500
C2643       C  0.38308920  0.95682408  0.75758095     0.13400
C2644       C  0.36027214  0.96803574  0.76801320    -0.20900
C2645       C  0.36135085  0.98758988  0.78689341    -0.07500
C2646       C  0.38624620  0.99694574  0.79456161     0.13400
C2647       C  0.38896261  0.01920161  0.81321734    -0.24300
H2648       H  0.42797572  0.99308785  0.79005462     0.14700
H2649       H  0.34135203  0.96109065  0.76170894     0.14700
C2650       C  0.38027108  0.93629520  0.73704255    -0.24200
H2651       H  0.40962460  0.02528283  0.81552179     0.04900
H2652       H  0.38171738  0.01331784  0.83268942     0.08200
H2653       H  0.37773047  0.03619413  0.80589758     0.08200
H2654       H  0.38776125  0.91750971  0.74457944     0.08100
H2655       H  0.39120929  0.94210873  0.71927896     0.08100
H2656       H  0.35956532  0.93331944  0.73141598     0.04900
C2657       C  0.62557479  0.89035615  0.63479025    -0.20900
C2658       C  0.60754827  0.87542320  0.64942670    -0.07500
C2659       C  0.60311898  0.84940085  0.64114733     0.13400
C2660       C  0.61483417  0.84020720  0.61816609    -0.20900
C2661       C  0.63298891  0.85483550  0.60389905    -0.07500
C2662       C  0.63894650  0.88010989  0.61285572     0.13400
C2663       C  0.65885127  0.89656690  0.59892879    -0.24300
H2664       H  0.62943295  0.91013750  0.64066943     0.14700
H2665       H  0.61014765  0.82090673  0.61156802     0.14700
C2666       C  0.58579918  0.83083125  0.65591177    -0.24200
H2667       H  0.66053871  0.91612075  0.60773020     0.04900
H2668       H  0.65315756  0.89902954  0.57819283     0.08200
H2669       H  0.67830521  0.88716328  0.60005091     0.08200
H2670       H  0.56591217  0.83863284  0.65706135     0.08100
H2671       H  0.59367279  0.82751955  0.67577169     0.08100
H2672       H  0.58422059  0.81167942  0.64629253     0.04900
C2673       C  0.54610981  0.02896831  0.73521484    -0.20900
C2674       C  0.53979373  0.02170890  0.76114573    -0.07500
C2675       C  0.53244172  0.04241562  0.77780544     0.13400
C2676       C  0.53047087  0.06842362  0.76823305    -0.20900
C2677       C  0.53447605  0.07525221  0.74183717    -0.07500
C2678       C  0.54304971  0.05491396  0.72540013     0.13400
C2679       C  0.54715969  0.06021892  0.69685748    -0.24300
H2680       H  0.55016680  0.01367859  0.72150321     0.14700
H2681       H  0.52339431  0.08319162  0.78124198     0.14700
C2682       C  0.52461102  0.03739468  0.80562478    -0.24200
H2683       H  0.55379180  0.04260097  0.68643219     0.04900
H2684       H  0.56221046  0.07553386  0.69435269     0.08200
H2685       H  0.52862821  0.06687515  0.68780481     0.08200
H2686       H  0.52720982  0.01678019  0.81145634     0.08100
H2687       H  0.50380200  0.04273426  0.80833884     0.08100
H2688       H  0.53680388  0.04939876  0.81874641     0.04900
C2689       C  0.50149468  0.81806268  0.78234079    -0.20900
C2690       C  0.52832479  0.82468387  0.78143578    -0.07500
C2691       C  0.54609883  0.80346116  0.78305857     0.13400
C2692       C  0.53704998  0.77728591  0.78302781    -0.20900
C2693       C  0.51041321  0.77055365  0.78145071    -0.07500
C2694       C  0.49248114  0.79163957  0.78195591     0.13400
C2695       C  0.46369541  0.78623220  0.78089946    -0.24300
H2696       H  0.48739860  0.83363860  0.78126124     0.14700
H2697       H  0.55125827  0.76187305  0.78127262     0.14700
C2698       C  0.57508684  0.80826865  0.78383544    -0.24200
H2699       H  0.45207760  0.80441547  0.78148123     0.04900
H2700       H  0.45802996  0.77395499  0.79784172     0.08200
H2701       H  0.45883149  0.77588305  0.76265024     0.08200
H2702       H  0.57981417  0.82131641  0.80029279     0.08100
H2703       H  0.58179942  0.81725083  0.76534356     0.08100
H2704       H  0.58620721  0.78994943  0.78664847     0.04900
C2705       C  0.41336435  0.99751234  0.67489954    -0.20900
C2706       C  0.42196152  0.97215805  0.66987001    -0.07500
C2707       C  0.40391492  0.95307296  0.66140363     0.13400
C2708       C  0.37832594  0.96038671  0.65663264    -0.20900
C2709       C  0.37070636  0.98612487  0.65922051    -0.07500
C2710       C  0.38769495  0.00473365  0.66954177     0.13400
C2711       C  0.37882767  0.03215466  0.67408116    -0.24300
H2712       H  0.42685238  0.01178964  0.68250429     0.14700
H2713       H  0.36468841  0.94644080  0.64861626     0.14700
C2714       C  0.41109067  0.92508730  0.65697301    -0.24200
H2715       H  0.36342797  0.03228911  0.68925897     0.04900
H2716       H  0.37065074  0.04039314  0.65591380     0.08200
H2717       H  0.39513469  0.04479977  0.68041099     0.08200
H2718       H  0.41995490  0.91678510  0.67486864     0.08100
H2719       H  0.42479232  0.92382089  0.64036268     0.08100
H2720       H  0.39384771  0.91299756  0.65204433     0.04900
C2721       C  0.50116740  0.83906472  0.62342575    -0.20900
C2722       C  0.52256958  0.85574290  0.62401561    -0.07500
C2723       C  0.53562524  0.86280291  0.60074232     0.13400
C2724       C  0.52585210  0.85392176  0.57712509    -0.20900
C2725       C  0.50295381  0.83936648  0.57656751    -0.07500
C2726       C  0.49067312  0.83130371  0.59988377     0.13400
C2727       C  0.46644124  0.81475439  0.60086344    -0.24300
H2728       H  0.49109293  0.83392956  0.64132532     0.14700
H2729       H  0.53531436  0.85948300  0.55903971     0.14700
C2730       C  0.55908775  0.88036490  0.59993674    -0.24200
H2731       H  0.47030965  0.79698877  0.61262441     0.04900
H2732       H  0.45986467  0.80848536  0.58148373     0.08200
H2733       H  0.45035459  0.82579153  0.61009908     0.08200
H2734       H  0.56561193  0.88627341  0.61950823     0.08100
H2735       H  0.55437740  0.89818088  0.58858414     0.08100
H2736       H  0.57552797  0.87021867  0.59032161     0.04900
loop_ 
_geom_bond_atom_site_label_1 
_geom_bond_atom_site_label_2 
_geom_bond_distance 
_geom_bond_site_symmetry_2 
_ccdc_geom_bond_type 
Zr1           O2   2.445       .  S
Zr1           O3   2.459       .  S
Zr1           O4   2.415       .  S
Zr1           O7   2.426       .  S
Zr1           O9   2.363       .  S
Zr1          O10   2.402       .  S
Zr1          O11   2.421       .  S
Zr1          O12   2.397       .  S
O2           H58   0.990       .  S
O2           H66   0.990       .  S
O3           C23   1.287       .  A
O4           C25   1.279       .  A
O5          Zr15   2.619       .  S
O5           C24   1.320       .  A
O6          Zr14   2.383       .  S
O6           C25   1.270       .  A
O7           C24   1.277       .  A
O8          Zr16   2.495       .  S
O8           C23   1.294       .  A
O9          Zr14   2.376       .  S
O9          Zr16   2.332       .  S
O10         Zr15   2.421       .  S
O10         Zr16   2.397       .  S
O10          H45   0.968       .  S
O11         Zr14   2.409       .  S
O11         Zr31   2.427       .  S
O11          H48   0.966       .  S
O12         Zr15   2.375       .  S
O12         Zr31   2.368       .  S
Zr13         O38   2.441   1_565  S
Zr13         O32   2.453       .  S
Zr13         O40   2.368       .  S
Zr13         O28   2.425       .  S
Zr13         O20   2.417       .  S
Zr13         O21   2.338       .  S
Zr13         O22   2.387       .  S
Zr13         O19   2.329       .  S
Zr14         O33   2.437       .  S
Zr14         O26   2.435       .  S
Zr14         O27   2.397       .  S
Zr14         O20   2.390       .  S
Zr14         O21   2.374       .  S
Zr15         O17   2.441       .  S
Zr15         O39   2.440       .  S
Zr15         O41   2.624       .  S
Zr15         O22   2.400       .  S
Zr15         O19   2.280       .  S
Zr16         O42   2.445       .  S
Zr16         O43   2.434       .  S
Zr16         O18   2.444       .  S
Zr16         O20   2.443       .  S
Zr16         O19   2.318       .  S
O17          H54   0.991       .  S
O18          H49   0.992       .  S
O18          H63   0.989       .  S
O20          H46   0.967       .  S
O21         Zr31   2.339       .  S
O22         Zr31   2.394       .  S
O22          H47   0.967       .  S
C23        C2658   1.526       .  S
C24        C2690   1.545       .  S
C25        C2722   1.444       .  S
O26          H62   0.989       .  S
O27          C29   1.278       .  A
O28          C29   1.282       .  A
C29        C2706   1.460       .  S
O30         Zr31   2.438       .  S
O30          H59   0.991       .  S
Zr31         O34   2.435       .  S
Zr31         O35   2.439       .  S
Zr31         O36   2.459       .  S
O32          C37   1.287       .  A
O33          H50   0.989       .  S
O33          H65   0.989       .  S
O34          H51   0.989       .  S
O35          H55   0.989       .  S
O35          H64   0.991       .  S
O36          C37   1.288       .  A
C37        C2642   1.505       .  S
O38          H57   0.990       .  S
O38          H61   0.992       .  S
O39          H53   0.990       .  S
O39          H60   0.993       .  S
O40          C44   1.262       .  A
O41          C44   1.318       .  A
O42          H52   0.991       .  S
O43          H56   0.991       .  S
C44        C2674   1.535   1_565  S
Zr67         O68   2.440       .  S
Zr67         O69   2.454       .  S
Zr67         O70   2.370       .  S
Zr67         O73   2.376       .  S
Zr67         O75   2.360       .  S
Zr67         O76   2.373       .  S
Zr67         O77   2.417       .  S
Zr67         O78   2.412       .  S
O68         H124   0.992       .  S
O68         H132   0.986       .  S
O69          C89   1.286       .  A
O70          C91   1.271       .  A
O71         Zr81   2.627       .  S
O71          C90   1.315       .  A
O72         Zr80   2.421       .  S
O72          C91   1.284       .  A
O73          C90   1.262       .  A
O74         Zr82   2.430       .  S
O74          C89   1.283       .  A
O75         Zr80   2.382       .  S
O75         Zr82   2.351       .  S
O76         Zr81   2.410       .  S
O76         Zr82   2.403       .  S
O76         H111   0.965       .  S
O77         Zr80   2.384       .  S
O77         Zr97   2.430       .  S
O77         H114   0.965       .  S
O78         Zr81   2.388       .  S
O78         Zr97   2.401       .  S
Zr79        O104   2.442       .  S
Zr79         O98   2.440       .  S
Zr79        O106   2.442       .  S
Zr79         O94   2.424       .  S
Zr79         O85   2.368       .  S
Zr79         O86   2.422       .  S
Zr79         O87   2.373       .  S
Zr79         O88   2.401       .  S
Zr80         O99   2.436       .  S
Zr80         O92   2.435       .  S
Zr80         O93   2.397       .  S
Zr80         O86   2.403       .  S
Zr80         O87   2.383       .  S
Zr81         O83   2.436       .  S
Zr81        O105   2.435       .  S
Zr81        O107   2.604       .  S
Zr81         O85   2.371       .  S
Zr81         O88   2.437       .  S
Zr82        O108   2.435       .  S
Zr82        O109   2.437       .  S
Zr82         O84   2.440       .  S
Zr82         O85   2.368       .  S
Zr82         O86   2.420       .  S
O83         H120   0.989       .  S
O84         H115   0.990       .  S
O84         H129   0.991       .  S
O86         H112   0.967       .  S
O87         Zr97   2.350       .  S
O88         Zr97   2.402       .  S
O88         H113   0.967       .  S
C89        C2562   1.499       .  S
C90        C2594   1.547       .  S
C91        C2610   1.445       .  S
O92         H128   0.991       .  S
O93          C95   1.280       .  A
O94          C95   1.281       .  A
C95        C2626   1.470       .  S
O96         Zr97   2.439       .  S
O96         H125   0.991       .  S
Zr97        O100   2.442       .  S
Zr97        O101   2.443       .  S
Zr97        O102   2.479       .  S
O98         C103   1.281       .  A
O99         H116   0.989       .  S
O99         H131   0.990       .  S
O100        H117   0.990       .  S
O101        H121   0.990       .  S
O101        H130   0.989       .  S
O102        C103   1.288       .  A
C103       C2578   1.517       .  S
O104        H123   0.990       .  S
O104        H127   0.991       .  S
O105        H119   0.991       .  S
O105        H126   0.990       .  S
O106        C110   1.286       .  A
O107        C110   1.321       .  A
O108        H118   0.991       .  S
O109        H122   0.991       .  S
C110       C2677   1.535       .  S
Zr133       O134   2.444       .  S
Zr133       O135   2.469       .  S
Zr133       O136   2.431       .  S
Zr133       O139   2.432       .  S
Zr133       O142   2.405       .  S
Zr133       O143   2.426       .  S
Zr133       O144   2.391       .  S
Zr133       O141   2.240       .  S
O134        H190   0.991       .  S
O134        H198   0.990       .  S
O135        C155   1.291       .  A
O136        C157   1.283       .  A
O137       Zr147   2.647       .  S
O137        C156   1.328       .  A
O138       Zr146   2.365       .  S
O138        C157   1.269       .  A
O139        C156   1.281       .  A
O140       Zr148   2.442       .  S
O140        C155   1.282       .  A
O141       Zr146   2.284       .  S
O141       Zr148   2.255       .  S
O142       Zr147   2.440       .  S
O142       Zr148   2.407       .  S
O142        H177   0.967       .  S
O143       Zr146   2.399       .  S
O143       Zr163   2.449       .  S
O143        H180   0.966       .  S
O144       Zr147   2.370       .  S
O144       Zr163   2.374       .  S
Zr145       O170   2.444       .  S
Zr145       O164   2.413       .  S
Zr145       O172   2.369       .  S
Zr145       O160   2.364       .  S
Zr145       O151   2.405       .  S
Zr145       O152   2.390       .  S
Zr145       O153   2.359       .  S
Zr145       O154   2.387       .  S
Zr146       O165   2.444       .  S
Zr146       O158   2.436       .  S
Zr146       O159   2.431       .  S
Zr146       O152   2.378       .  S
Zr146       O153   2.367       .  S
Zr147       O149   2.436       .  S
Zr147       O171   2.435       .  S
Zr147       O173   2.667       .  S
Zr147       O151   2.388       .  S
Zr147       O154   2.400       .  S
Zr148       O174   2.442       .  S
Zr148       O175   2.444       .  S
Zr148       O150   2.436       .  S
Zr148       O151   2.391       .  S
Zr148       O152   2.426       .  S
O149        H186   0.991       .  S
O150        H181   0.992       .  S
O150        H195   0.989       .  S
O152        H178   0.966       .  S
O153       Zr163   2.341       .  S
O154       Zr163   2.375       .  S
O154        H179   0.966       .  S
C155       C2498   1.512       .  S
C156       C2597   1.551       .  S
C157       C2546   1.458       .  S
O158        H194   0.988       .  S
O159        C161   1.284       .  A
O160        C161   1.273       .  A
C161       C2530   1.446       .  S
O162       Zr163   2.442       .  S
O162        H191   0.992       .  S
Zr163       O166   2.439       .  S
Zr163       O167   2.449       .  S
Zr163       O168   2.469       .  S
O164        C169   1.282       .  A
O165        H182   0.990       .  S
O165        H197   0.990       .  S
O166        H183   0.988       .  S
O167        H187   0.989       .  S
O167        H196   0.991       .  S
O168        C169   1.290       .  A
C169       C2482   1.501       .  S
O170        H189   0.990       .  S
O170        H193   0.988       .  S
O171        H185   0.989       .  S
O171        H192   0.991       .  S
O172        C176   1.253       .  A
O173        C176   1.319       .  A
O174        H184   0.990       .  S
O175        H188   0.990       .  S
C176       C2514   1.570       .  S
Zr199       O200   2.440       .  S
Zr199       O201   2.457       .  S
Zr199       O202   2.410       .  S
Zr199       O205   2.411       .  S
Zr199       O207   2.344       .  S
Zr199       O208   2.398       .  S
Zr199       O209   2.416       .  S
Zr199       O210   2.394       .  S
O200        H256   0.991       .  S
O200        H264   0.989       .  S
O201        C221   1.290       .  A
O202        C223   1.280       .  A
O203       Zr213   2.627       .  S
O203        C222   1.316       .  A
O204       Zr212   2.424       .  S
O204        C223   1.285       .  A
O205        C222   1.273       .  A
O206       Zr214   2.476       .  S
O206        C221   1.290       .  A
O207       Zr212   2.356       .  S
O207       Zr214   2.322       .  S
O208       Zr213   2.414       .  S
O208       Zr214   2.395       .  S
O208        H243   0.968       .  S
O209       Zr212   2.393       .  S
O209       Zr229   2.431       .  S
O209        H246   0.967       .  S
O210       Zr213   2.377       .  S
O210       Zr229   2.373       .  S
Zr211       O236   2.449       .  S
Zr211       O230   2.466       .  S
Zr211       O238   2.395       .  S
Zr211       O226   2.417       .  S
Zr211       O218   2.422       .  S
Zr211       O219   2.361       .  S
Zr211       O220   2.385       .  S
Zr211       O217   2.319       .  S
Zr212       O231   2.436       .  S
Zr212       O224   2.436       .  S
Zr212       O225   2.380       .  S
Zr212       O218   2.409       .  S
Zr212       O219   2.406       .  S
Zr213       O215   2.441       .  S
Zr213       O237   2.440       .  S
Zr213       O239   2.614       .  S
Zr213       O220   2.417       .  S
Zr213       O217   2.285       .  S
Zr214       O240   2.439       .  S
Zr214       O241   2.439       .  S
Zr214       O216   2.450       .  S
Zr214       O218   2.421       .  S
Zr214       O217   2.312       .  S
O215        H252   0.991       .  S
O216        H247   0.989       .  S
O216        H261   0.992       .  S
O218        H244   0.967       .  S
O219       Zr229   2.364       .  S
O220       Zr229   2.401       .  S
O220        H245   0.968       .  S
C221       C2418   1.505       .  S
C222       C2517   1.568       .  S
C223       C2450   1.473       .  S
O224        H260   0.989       .  S
O225        C227   1.274       .  A
O226        C227   1.273       .  A
C227       C2466   1.437       .  S
O228       Zr229   2.444       .  S
O228        H257   0.989       .  S
Zr229       O232   2.439       .  S
Zr229       O233   2.439       .  S
Zr229       O234   2.440       .  S
O230        C235   1.287       .  A
O231        H248   0.990       .  S
O231        H263   0.991       .  S
O232        H249   0.991       .  S
O233        H253   0.990       .  S
O233        H262   0.989       .  S
O234        C235   1.284       .  A
C235       C2437   1.502       .  S
O236        H255   0.989       .  S
O236        H259   0.993       .  S
O237        H251   0.990       .  S
O237        H258   0.991       .  S
O238        C242   1.265       .  A
O239        C242   1.315       .  A
O240        H250   0.990       .  S
O241        H254   0.991       .  S
C242       C2693   1.536       .  S
Zr265       O266   2.437       .  S
Zr265       O267   2.450       .  S
Zr265       O268   2.437       .  S
Zr265       O271   2.429       .  S
Zr265       O273   2.343       .  S
Zr265       O274   2.401       .  S
Zr265       O275   2.420       .  S
Zr265       O276   2.385       .  S
O266        H322   0.992       .  S
O266        H330   0.989       .  S
O267        C287   1.287       .  A
O268        C289   1.285       .  A
O269       Zr279   2.625   1_556  S
O269        C288   1.324   1_556  A
O270       Zr278   2.400       .  S
O270        C289   1.279       .  A
O271        C288   1.284       .  A
O272       Zr280   2.470       .  S
O272        C287   1.288       .  A
O273       Zr278   2.372       .  S
O273       Zr280   2.329       .  S
O274       Zr279   2.426       .  S
O274       Zr280   2.403       .  S
O274        H309   0.966       .  S
O275       Zr278   2.404       .  S
O275       Zr295   2.443       .  S
O275        H312   0.965       .  S
O276       Zr279   2.370       .  S
O276       Zr295   2.365       .  S
Zr277       O302   2.439       .  S
Zr277       O296   2.422       .  S
Zr277       O304   2.374       .  S
Zr277       O292   2.393       .  S
Zr277       O283   2.410       .  S
Zr277       O284   2.402       .  S
Zr277       O285   2.362       .  S
Zr277       O286   2.386       .  S
Zr278       O297   2.436       .  S
Zr278       O290   2.435       .  S
Zr278       O291   2.421       .  S
Zr278       O284   2.402       .  S
Zr278       O285   2.386       .  S
Zr279       O281   2.435   1_554  S
Zr279       O303   2.437   1_554  S
Zr279       O305   2.616       .  S
Zr279       O283   2.401       .  S
Zr279       O286   2.420       .  S
Zr280       O306   2.435       .  S
Zr280       O307   2.437       .  S
Zr280       O282   2.440       .  S
Zr280       O283   2.394       .  S
Zr280       O284   2.428       .  S
O281        H318   0.990       .  S
O282        H313   0.990       .  S
O282        H327   0.989       .  S
O284        H310   0.966       .  S
O285       Zr295   2.335       .  S
O286       Zr295   2.389       .  S
O286        H311   0.966   1_554  S
C287       C2338   1.506       .  S
C288       C2354   1.542   1_554  S
C289       C2402   1.471       .  S
O290        H326   0.990       .  S
O291        C293   1.280       .  A
O292        C293   1.271       .  A
C293       C2389   1.464       .  S
O294       Zr295   2.438       .  S
O294        H323   0.992       .  S
Zr295       O298   2.438       .  S
Zr295       O299   2.444   1_554  S
Zr295       O300   2.450       .  S
O296        C301   1.280       .  A
O297        H314   0.989       .  S
O297        H329   0.990       .  S
O298        H315   0.989       .  S
O299        H319   0.991       .  S
O299        H328   0.989       .  S
O300        C301   1.286       .  A
C301       C2322   1.498       .  S
O302        H321   0.991       .  S
O302        H325   0.987       .  S
O303        H317   0.991       .  S
O303        H324   0.989       .  S
O304        C308   1.263   1_554  A
O305        C308   1.314   1_554  A
O306        H316   0.991       .  S
O307        H320   0.990       .  S
C308       C2373   1.541       .  S
Zr331       O332   2.441       .  S
Zr331       O333   2.458       .  S
Zr331       O334   2.415       .  S
Zr331       O337   2.431       .  S
Zr331       O339   2.369       .  S
Zr331       O340   2.382       .  S
Zr331       O341   2.422   1_554  S
Zr331       O342   2.379       .  S
O332        H388   0.989       .  S
O332        H396   0.990       .  S
O333        C353   1.285       .  A
O334        C355   1.278   1_554  A
O335       Zr345   2.619       .  S
O335        C354   1.322       .  A
O336       Zr344   2.421       .  S
O336        C355   1.283       .  A
O337        C354   1.282       .  A
O338       Zr346   2.490       .  S
O338        C353   1.290       .  A
O339       Zr344   2.405   1_554  S
O339       Zr346   2.342       .  S
O340       Zr345   2.430       .  S
O340       Zr346   2.394       .  S
O340        H375   0.968       .  S
O341       Zr344   2.413       .  S
O341       Zr361   2.427       .  S
O341        H378   0.965       .  S
O342       Zr345   2.375       .  S
O342       Zr361   2.379   1_554  S
Zr343       O368   2.453       .  S
Zr343       O362   2.463       .  S
Zr343       O370   2.379   1_556  S
Zr343       O358   2.383       .  S
Zr343       O350   2.417   1_556  S
Zr343       O351   2.364       .  S
Zr343       O352   2.369       .  S
Zr343       O349   2.325   1_556  S
Zr344       O363   2.436       .  S
Zr344       O356   2.435       .  S
Zr344       O357   2.436       .  S
Zr344       O350   2.399   1_556  S
Zr344       O351   2.408       .  S
Zr345       O347   2.440       .  S
Zr345       O369   2.441       .  S
Zr345       O371   2.621       .  S
Zr345       O352   2.431   1_554  S
Zr345       O349   2.286       .  S
Zr346       O372   2.440       .  S
Zr346       O373   2.449       .  S
Zr346       O348   2.457       .  S
Zr346       O350   2.430       .  S
Zr346       O349   2.320       .  S
O347        H384   0.990       .  S
O348        H379   0.989       .  S
O348        H393   0.992       .  S
O350        H376   0.966       .  S
O351       Zr361   2.363       .  S
O352       Zr361   2.403       .  S
O352        H377   0.968       .  S
C353       C2274   1.513       .  S
C354       C2370   1.544       .  S
C355       C2306   1.485   1_556  S
O356        H392   0.989       .  S
O357        C359   1.285       .  A
O358        C359   1.270       .  A
C359       C2549   1.450       .  S
O360       Zr361   2.437       .  S
O360        H389   0.991       .  S
Zr361       O364   2.439       .  S
Zr361       O365   2.441       .  S
Zr361       O366   2.433       .  S
O362        C367   1.285       .  A
O363        H380   0.991       .  S
O363        H395   0.989       .  S
O364        H381   0.990       .  S
O365        H385   0.991       .  S
O365        H394   0.989       .  S
O366        C367   1.279       .  A
C367       C2565   1.506       .  S
O368        H387   0.986       .  S
O368        H391   0.991       .  S
O369        H383   0.990       .  S
O369        H390   0.989       .  S
O370        C374   1.258       .  A
O371        C374   1.312       .  A
O372        H382   0.992       .  S
O373        H386   0.992       .  S
C374       C2290   1.544       .  S
Zr397       O398   2.431       .  S
Zr397       O399   2.435       .  S
Zr397       O400   2.398       .  S
Zr397       O403   2.356   1_556  S
Zr397       O405   2.340       .  S
Zr397       O406   2.383   1_556  S
Zr397       O407   2.399       .  S
Zr397       O408   2.432       .  S
O398        H454   0.988       .  S
O398        H462   0.988       .  S
O399        C419   1.283       .  A
O400        C421   1.273       .  A
O401       Zr411   2.610       .  S
O401        C420   1.312       .  A
O402       Zr410   2.414       .  S
O402        C421   1.283       .  A
O403        C420   1.257       .  A
O404       Zr412   2.416       .  S
O404        C419   1.281       .  A
O405       Zr410   2.367       .  S
O405       Zr412   2.359       .  S
O406       Zr411   2.404       .  S
O406       Zr412   2.382   1_554  S
O406        H441   0.966       .  S
O407       Zr410   2.373       .  S
O407       Zr427   2.430       .  S
O407        H444   0.966       .  S
O408       Zr411   2.398   1_556  S
O408       Zr427   2.413       .  S
Zr409       O434   2.446       .  S
Zr409       O428   2.461       .  S
Zr409       O436   2.466       .  S
Zr409       O424   2.441       .  S
Zr409       O415   2.393       .  S
Zr409       O416   2.417       .  S
Zr409       O417   2.367       .  S
Zr409       O418   2.404       .  S
Zr410       O429   2.438       .  S
Zr410       O422   2.435       .  S
Zr410       O423   2.365       .  S
Zr410       O416   2.407       .  S
Zr410       O417   2.384       .  S
Zr411       O413   2.435       .  S
Zr411       O435   2.435       .  S
Zr411       O437   2.580       .  S
Zr411       O415   2.404   1_554  S
Zr411       O418   2.425   1_554  S
Zr412       O438   2.434   1_556  S
Zr412       O439   2.436       .  S
Zr412       O414   2.437       .  S
Zr412       O415   2.381       .  S
Zr412       O416   2.397       .  S
O413        H450   0.987       .  S
O414        H445   0.990       .  S
O414        H459   0.990       .  S
O416        H442   0.965       .  S
O417       Zr427   2.337       .  S
O418       Zr427   2.398       .  S
O418        H443   0.966       .  S
C419       C2226   1.492   1_556  S
C420       C2242   1.529       .  S
C421       C2261   1.471       .  S
O422        H458   0.989       .  S
O423        C425   1.266       .  A
O424        C425   1.286       .  A
C425       C2613   1.470       .  S
O426       Zr427   2.438       .  S
O426        H455   0.990       .  S
Zr427       O430   2.439       .  S
Zr427       O431   2.441       .  S
Zr427       O432   2.472       .  S
O428        C433   1.289       .  A
O429        H446   0.989       .  S
O429        H461   0.991       .  S
O430        H447   0.991       .  S
O431        H451   0.992       .  S
O431        H460   0.988       .  S
O432        C433   1.289       .  A
C433       C2501   1.521       .  S
O434        H453   0.987       .  S
O434        H457   0.993       .  S
O435        H449   0.991       .  S
O435        H456   0.988       .  S
O436        C440   1.289   1_556  A
O437        C440   1.315       .  A
O438        H448   0.991       .  S
O439        H452   0.990       .  S
C440       C2293   1.545       .  S
Zr463       O464   2.444   1_455  S
Zr463       O465   2.432       .  S
Zr463       O466   2.387       .  S
Zr463       O469   2.367       .  S
Zr463       O471   2.351       .  S
Zr463       O472   2.376       .  S
Zr463       O473   2.407   1_554  S
Zr463       O474   2.426   1_554  S
O464        H520   0.989       .  S
O464        H528   0.987       .  S
O465        C485   1.280       .  A
O466        C487   1.268       .  A
O467       Zr477   2.616       .  S
O467        C486   1.312       .  A
O468       Zr476   2.422       .  S
O468        C487   1.281       .  A
O469        C486   1.255   1_554  A
O470       Zr478   2.423       .  S
O470        C485   1.282       .  A
O471       Zr476   2.379       .  S
O471       Zr478   2.361       .  S
O472       Zr477   2.412   1_554  S
O472       Zr478   2.397       .  S
O472        H507   0.966       .  S
O473       Zr476   2.389   1_556  S
O473       Zr493   2.429       .  S
O473        H510   0.965       .  S
O474       Zr477   2.388       .  S
O474       Zr493   2.409       .  S
Zr475       O500   2.430   1_556  S
Zr475       O494   2.459       .  S
Zr475       O502   2.474       .  S
Zr475       O490   2.452       .  S
Zr475       O481   2.389   1_556  S
Zr475       O482   2.422   1_556  S
Zr475       O483   2.352       .  S
Zr475       O484   2.401       .  S
Zr476       O495   2.439   1_554  S
Zr476       O488   2.435       .  S
Zr476       O489   2.378   1_554  S
Zr476       O482   2.404       .  S
Zr476       O483   2.374   1_554  S
Zr477       O479   2.436       .  S
Zr477       O501   2.437   1_556  S
Zr477       O503   2.567   1_556  S
Zr477       O481   2.409   1_556  S
Zr477       O484   2.430       .  S
Zr478       O504   2.438       .  S
Zr478       O505   2.435       .  S
Zr478       O480   2.444       .  S
Zr478       O481   2.383       .  S
Zr478       O482   2.417       .  S
O479        H516   0.991       .  S
O480        H511   0.989       .  S
O480        H525   0.989       .  S
O482        H508   0.966       .  S
O483       Zr493   2.323       .  S
O484       Zr493   2.397       .  S
O484        H509   0.966       .  S
C485       C2178   1.486       .  S
C486       C2357   1.537   1_455  S
C487       C2213   1.453   1_455  S
O488        H524   0.992       .  S
O489        C491   1.278       .  A
O490        C491   1.287       .  A
C491       C2194   1.479       .  S
O492       Zr493   2.437       .  S
O492        H521   0.991       .  S
Zr493       O496   2.438       .  S
Zr493       O497   2.439       .  S
Zr493       O498   2.477       .  S
O494        C499   1.289       .  A
O495        H512   0.989   1_556  S
O495        H527   0.989       .  S
O496        H513   0.992       .  S
O497        H517   0.990       .  S
O497        H526   0.990       .  S
O498        C499   1.290       .  A
C499       C2162   1.516       .  S
O500        H519   0.989   1_554  S
O500        H523   0.988       .  S
O501        H515   0.990       .  S
O501        H522   0.990       .  S
O502        C506   1.294   1_556  A
O503        C506   1.312       .  A
O504        H514   0.990       .  S
O505        H518   0.990       .  S
C506       C2245   1.542       .  S
Zr529       O530   2.440   1_556  S
Zr529       O531   2.442       .  S
Zr529       O532   2.401       .  S
Zr529       O535   2.395       .  S
Zr529       O537   2.361       .  S
Zr529       O538   2.391       .  S
Zr529       O539   2.412       .  S
Zr529       O540   2.408       .  S
O530        H586   0.990       .  S
O530        H594   0.989       .  S
O531        C551   1.285       .  A
O532        C553   1.279       .  A
O533       Zr543   2.602       .  S
O533        C552   1.314   1_556  A
O534       Zr542   2.400       .  S
O534        C553   1.279       .  A
O535        C552   1.268   1_556  A
O536       Zr544   2.439       .  S
O536        C551   1.284       .  A
O537       Zr542   2.380       .  S
O537       Zr544   2.360       .  S
O538       Zr543   2.416       .  S
O538       Zr544   2.392       .  S
O538        H573   0.967       .  S
O539       Zr542   2.386       .  S
O539       Zr559   2.421       .  S
O539        H576   0.966       .  S
O540       Zr543   2.386       .  S
O540       Zr559   2.388       .  S
Zr541       O566   2.423       .  S
Zr541       O560   2.465       .  S
Zr541       O568   2.414       .  S
Zr541       O556   2.414       .  S
Zr541       O547   2.392       .  S
Zr541       O548   2.431       .  S
Zr541       O549   2.369       .  S
Zr541       O550   2.393       .  S
Zr542       O561   2.437       .  S
Zr542       O554   2.437       .  S
Zr542       O555   2.399       .  S
Zr542       O548   2.397       .  S
Zr542       O549   2.382       .  S
Zr543       O545   2.435       .  S
Zr543       O567   2.436       .  S
Zr543       O569   2.594       .  S
Zr543       O547   2.381       .  S
Zr543       O550   2.427       .  S
Zr544       O570   2.435       .  S
Zr544       O571   2.436       .  S
Zr544       O546   2.438       .  S
Zr544       O547   2.382       .  S
Zr544       O548   2.408       .  S
O545        H582   0.991       .  S
O546        H577   0.990       .  S
O546        H591   0.990       .  S
O548        H574   0.966       .  S
O549       Zr559   2.350       .  S
O550       Zr559   2.403       .  S
O550        H575   0.966       .  S
C551       C2325   1.488       .  S
C552       C2130   1.534       .  S
C553       C2309   1.463   1_556  S
O554        H590   0.989       .  S
O555        C557   1.270       .  A
O556        C557   1.272       .  A
C557       C2533   1.443       .  S
O558       Zr559   2.430       .  S
O558        H587   0.991   1_556  S
Zr559       O562   2.435       .  S
Zr559       O563   2.438       .  S
Zr559       O564   2.449       .  S
O560        C565   1.288       .  A
O561        H578   0.990       .  S
O561        H593   0.989       .  S
O562        H579   0.989       .  S
O563        H583   0.990       .  S
O563        H592   0.991       .  S
O564        C565   1.284       .  A
C565       C2421   1.503       .  S
O566        H585   0.991       .  S
O566        H589   0.987       .  S
O567        H581   0.990       .  S
O567        H588   0.990       .  S
O568        C572   1.279       .  A
O569        C572   1.317       .  A
O570        H580   0.992       .  S
O571        H584   0.988       .  S
C572       C2146   1.531       .  S
Zr595       O596   2.447       .  S
Zr595       O597   2.462       .  S
Zr595       O598   2.399       .  S
Zr595       O601   2.365       .  S
Zr595       O603   2.358       .  S
Zr595       O604   2.389       .  S
Zr595       O605   2.430       .  S
Zr595       O606   2.402       .  S
O596        H652   0.992       .  S
O596        H660   0.990       .  S
O597        C617   1.287       .  A
O598        C619   1.266       .  A
O599       Zr609   2.624       .  S
O599        C618   1.323       .  A
O600       Zr608   2.426       .  S
O600        C619   1.276       .  A
O601        C618   1.269       .  A
O602       Zr610   2.441       .  S
O602        C617   1.283       .  A
O603       Zr608   2.393       .  S
O603       Zr610   2.340       .  S
O604       Zr609   2.411       .  S
O604       Zr610   2.398       .  S
O604        H639   0.966       .  S
O605       Zr608   2.411       .  S
O605       Zr625   2.426       .  S
O605        H642   0.967       .  S
O606       Zr609   2.379       .  S
O606       Zr625   2.392       .  S
Zr607       O632   2.442       .  S
Zr607       O626   2.447       .  S
Zr607       O634   2.408       .  S
Zr607       O622   2.418       .  S
Zr607       O613   2.380       .  S
Zr607       O614   2.423       .  S
Zr607       O615   2.353       .  S
Zr607       O616   2.402       .  S
Zr608       O627   2.436       .  S
Zr608       O620   2.432       .  S
Zr608       O621   2.410       .  S
Zr608       O614   2.413       .  S
Zr608       O615   2.378       .  S
Zr609       O611   2.434       .  S
Zr609       O633   2.436       .  S
Zr609       O635   2.613       .  S
Zr609       O613   2.372       .  S
Zr609       O616   2.435       .  S
Zr610       O636   2.435       .  S
Zr610       O637   2.436       .  S
Zr610       O612   2.439       .  S
Zr610       O613   2.360       .  S
Zr610       O614   2.438       .  S
O611        H648   0.990       .  S
O612        H643   0.990       .  S
O612        H657   0.990       .  S
O614        H640   0.965       .  S
O615       Zr625   2.340       .  S
O616       Zr625   2.404       .  S
O616        H641   0.967       .  S
C617       C2034   1.501       .  S
C618       C2082   1.522       .  S
C619       C2101   1.462       .  S
O620        H656   0.990       .  S
O621        C623   1.282       .  A
O622        C623   1.277       .  A
C623       C2114   1.476       .  S
O624       Zr625   2.435       .  S
O624        H653   0.990       .  S
Zr625       O628   2.436       .  S
Zr625       O629   2.437       .  S
Zr625       O630   2.464       .  S
O626        C631   1.286       .  A
O627        H644   0.990       .  S
O627        H659   0.990       .  S
O628        H645   0.990       .  S
O629        H649   0.989       .  S
O629        H658   0.994       .  S
O630        C631   1.286       .  A
C631       C2050   1.523       .  S
O632        H651   0.989       .  S
O632        H655   0.990       .  S
O633        H647   0.990       .  S
O633        H654   0.988       .  S
O634        C638   1.277       .  A
O635        C638   1.321       .  A
O636        H646   0.991       .  S
O637        H650   0.991       .  S
C638       C2066   1.533       .  S
Zr661       O662   2.455       .  S
Zr661       O663   2.468       .  S
Zr661       O664   2.415       .  S
Zr661       O667   2.390       .  S
Zr661       O669   2.367       .  S
Zr661       O670   2.381       .  S
Zr661       O671   2.430       .  S
Zr661       O672   2.337       .  S
O662        H718   0.990       .  S
O662        H726   0.988       .  S
O663        C683   1.286       .  A
O664        C685   1.277       .  A
O665       Zr675   2.590       .  S
O665        C684   1.306       .  A
O666       Zr674   2.403       .  S
O666        C685   1.279       .  A
O667        C684   1.259       .  A
O668       Zr676   2.425       .  S
O668        C683   1.280       .  A
O669       Zr674   2.398       .  S
O669       Zr676   2.376       .  S
O670       Zr675   2.419       .  S
O670       Zr676   2.398       .  S
O670        H705   0.967       .  S
O671       Zr674   2.395       .  S
O671       Zr691   2.416       .  S
O671        H708   0.966       .  S
O672       Zr675   2.284       .  S
O672       Zr691   2.323       .  S
Zr673       O698   2.445       .  S
Zr673       O692   2.461       .  S
Zr673       O700   2.433       .  S
Zr673       O688   2.426       .  S
Zr673       O679   2.378       .  S
Zr673       O680   2.424       .  S
Zr673       O681   2.371       .  S
Zr673       O682   2.397       .  S
Zr674       O693   2.437       .  S
Zr674       O686   2.436       .  S
Zr674       O687   2.382       .  S
Zr674       O680   2.396       .  S
Zr674       O681   2.392       .  S
Zr675       O677   2.440       .  S
Zr675       O699   2.441       .  S
Zr675       O701   2.612       .  S
Zr675       O679   2.361       .  S
Zr675       O682   2.424       .  S
Zr676       O702   2.436       .  S
Zr676       O703   2.434       .  S
Zr676       O678   2.438       .  S
Zr676       O679   2.370       .  S
Zr676       O680   2.422       .  S
O677        H714   0.989       .  S
O678        H709   0.990       .  S
O678        H723   0.990       .  S
O680        H706   0.966       .  S
O681       Zr691   2.351       .  S
O682       Zr691   2.401       .  S
O682        H707   0.968       .  S
C683       C2485   1.496       .  S
C684       C2149   1.530       .  S
C685       C2453   1.458       .  S
O686        H722   0.991       .  S
O687        C689   1.274       .  A
O688        C689   1.281       .  A
C689       C2018   1.460       .  S
O690       Zr691   2.439       .  S
O690        H719   0.988       .  S
Zr691       O694   2.448       .  S
Zr691       O695   2.443       .  S
Zr691       O696   2.468       .  S
O692        C697   1.285       .  A
O693        H710   0.990       .  S
O693        H725   0.990       .  S
O694        H711   0.992       .  S
O695        H715   0.992       .  S
O695        H724   0.988       .  S
O696        C697   1.285       .  A
C697       C2005   1.503       .  S
O698        H717   0.990       .  S
O698        H721   0.991       .  S
O699        H713   0.989       .  S
O699        H720   0.991       .  S
O700        C704   1.285       .  A
O701        C704   1.322       .  A
O702        H712   0.991       .  S
O703        H716   0.990       .  S
C704       C2085   1.541       .  S
Zr727       O728   2.440       .  S
Zr727       O729   2.486       .  S
Zr727       O730   2.388       .  S
Zr727       O733   2.417       .  S
Zr727       O735   2.354       .  S
Zr727       O736   2.399       .  S
Zr727       O737   2.451       .  S
Zr727       O738   2.386       .  S
O728        H784   0.989       .  S
O728        H792   0.991       .  S
O729        C749   1.292       .  A
O730        C751   1.272       .  A
O731       Zr741   2.631       .  S
O731        C750   1.327       .  A
O732       Zr740   2.432       .  S
O732        C751   1.277       .  A
O733        C750   1.280       .  A
O734       Zr742   2.474       .  S
O734        C749   1.292       .  A
O735       Zr740   2.368       .  S
O735       Zr742   2.338       .  S
O736       Zr741   2.441       .  S
O736       Zr742   2.407       .  S
O736        H771   0.966       .  S
O737       Zr740   2.403       .  S
O737       Zr757   2.425       .  S
O737        H774   0.964       .  S
O738       Zr741   2.354       .  S
O738       Zr757   2.361       .  S
Zr739       O764   2.446       .  S
Zr739       O758   2.457       .  S
Zr739       O766   2.366       .  S
Zr739       O754   2.414       .  S
Zr739       O745   2.407       .  S
Zr739       O746   2.419       .  S
Zr739       O747   2.360       .  S
Zr739       O748   2.395       .  S
Zr740       O759   2.432       .  S
Zr740       O752   2.434       .  S
Zr740       O753   2.421       .  S
Zr740       O746   2.401       .  S
Zr740       O747   2.385       .  S
Zr741       O743   2.436       .  S
Zr741       O765   2.436       .  S
Zr741       O767   2.632       .  S
Zr741       O745   2.393       .  S
Zr741       O748   2.392       .  S
Zr742       O768   2.437       .  S
Zr742       O769   2.433       .  S
Zr742       O744   2.440       .  S
Zr742       O745   2.405       .  S
Zr742       O746   2.434       .  S
O743        H780   0.991       .  S
O744        H775   0.990       .  S
O744        H789   0.991       .  S
O746        H772   0.965       .  S
O747       Zr757   2.338       .  S
O748       Zr757   2.400       .  S
O748        H773   0.966       .  S
C749       C2277   1.526       .  S
C750       C2133   1.533       .  S
C751       C2386   1.446       .  S
O752        H788   0.990       .  S
O753        C755   1.278       .  A
O754        C755   1.271       .  A
C755       C1986   1.457       .  S
O756       Zr757   2.437       .  S
O756        H785   0.990       .  S
Zr757       O760   2.436       .  S
Zr757       O761   2.436       .  S
Zr757       O762   2.432       .  S
O758        C763   1.287       .  A
O759        H776   0.991       .  S
O759        H791   0.989       .  S
O760        H777   0.990       .  S
O761        H781   0.989       .  S
O761        H790   0.991       .  S
O762        C763   1.284       .  A
C763       C1973   1.497       .  S
O764        H783   0.991       .  S
O764        H787   0.990       .  S
O765        H779   0.988       .  S
O765        H786   0.992       .  S
O766        C770   1.268       .  A
O767        C770   1.324       .  A
O768        H778   0.990       .  S
O769        H782   0.990       .  S
C770       C2069   1.535       .  S
Zr793       O794   2.459       .  S
Zr793       O795   2.481       .  S
Zr793       O796   2.391       .  S
Zr793       O799   2.386   1_545  S
Zr793       O801   2.364       .  S
Zr793       O802   2.380   1_545  S
Zr793       O803   2.436       .  S
Zr793       O804   2.336       .  S
O794        H850   0.992       .  S
O794        H858   0.989       .  S
O795        C815   1.289   1_545  A
O796        C817   1.268       .  A
O797       Zr807   2.625       .  S
O797        C816   1.315       .  A
O798       Zr806   2.424       .  S
O798        C817   1.281       .  A
O799        C816   1.260       .  A
O800       Zr808   2.425       .  S
O800        C815   1.280   1_545  A
O801       Zr806   2.389       .  S
O801       Zr808   2.367       .  S
O802       Zr807   2.421       .  S
O802       Zr808   2.409   1_565  S
O802        H837   0.968       .  S
O803       Zr806   2.402       .  S
O803       Zr823   2.436       .  S
O803        H840   0.967       .  S
O804       Zr807   2.272   1_545  S
O804       Zr823   2.328       .  S
Zr805       O830   2.440       .  S
Zr805       O824   2.444       .  S
Zr805       O832   2.441       .  S
Zr805       O820   2.438       .  S
Zr805       O811   2.384       .  S
Zr805       O812   2.418       .  S
Zr805       O813   2.363       .  S
Zr805       O814   2.402       .  S
Zr806       O825   2.439       .  S
Zr806       O818   2.434       .  S
Zr806       O819   2.409       .  S
Zr806       O812   2.398       .  S
Zr806       O813   2.382       .  S
Zr807       O809   2.439       .  S
Zr807       O831   2.441       .  S
Zr807       O833   2.615       .  S
Zr807       O811   2.377   1_565  S
Zr807       O814   2.417   1_565  S
Zr808       O834   2.434   1_545  S
Zr808       O835   2.433       .  S
Zr808       O810   2.437       .  S
Zr808       O811   2.373       .  S
Zr808       O812   2.413       .  S
O809        H846   0.992       .  S
O810        H841   0.992       .  S
O810        H855   0.989       .  S
O812        H838   0.965       .  S
O813       Zr823   2.326       .  S
O814       Zr823   2.398       .  S
O814        H839   0.968       .  S
C815       C2645   1.503       .  S
C816       C1954   1.545       .  S
C817       C2629   1.446       .  S
O818        H854   0.989       .  S
O819        C821   1.281       .  A
O820        C821   1.286       .  A
C821       C2258   1.479       .  S
O822       Zr823   2.441       .  S
O822        H851   0.990       .  S
Zr823       O826   2.447       .  S
Zr823       O827   2.444       .  S
Zr823       O828   2.513       .  S
O824        C829   1.285       .  A
O825        H842   0.990       .  S
O825        H857   0.990       .  S
O826        H843   0.990       .  S
O827        H847   0.992       .  S
O827        H856   0.988       .  S
O828        C829   1.296       .  A
C829       C2165   1.518       .  S
O830        H849   0.991       .  S
O830        H853   0.989       .  S
O831        H845   0.992       .  S
O831        H852   0.989       .  S
O832        C836   1.286   1_545  A
O833        C836   1.323       .  A
O834        H844   0.992       .  S
O835        H848   0.990       .  S
C836       C1938   1.547       .  S
Zr859       O860   2.446       .  S
Zr859       O861   2.471       .  S
Zr859       O862   2.423       .  S
Zr859       O865   2.433       .  S
Zr859       O867   2.371       .  S
Zr859       O868   2.408       .  S
Zr859       O869   2.443       .  S
Zr859       O870   2.401       .  S
O860        H916   0.990       .  S
O860        H924   0.991       .  S
O861        C881   1.289       .  A
O862        C883   1.276       .  A
O863       Zr873   2.610       .  S
O863        C882   1.321       .  A
O864       Zr872   2.405       .  S
O864        C883   1.271       .  A
O865        C882   1.282   1_565  A
O866       Zr874   2.467       .  S
O866        C881   1.289       .  A
O867       Zr872   2.382       .  S
O867       Zr874   2.350       .  S
O868       Zr873   2.437   1_565  S
O868       Zr874   2.403       .  S
O868        H903   0.966       .  S
O869       Zr872   2.399       .  S
O869       Zr889   2.400       .  S
O869        H906   0.968       .  S
O870       Zr873   2.386   1_565  S
O870       Zr889   2.383       .  S
Zr871       O896   2.436       .  S
Zr871       O890   2.428       .  S
Zr871       O898   2.348   1_565  S
Zr871       O886   2.370       .  S
Zr871       O877   2.408       .  S
Zr871       O878   2.397       .  S
Zr871       O879   2.351       .  S
Zr871       O880   2.385   1_565  S
Zr872       O891   2.438       .  S
Zr872       O884   2.436       .  S
Zr872       O885   2.422       .  S
Zr872       O878   2.387       .  S
Zr872       O879   2.378       .  S
Zr873       O875   2.437       .  S
Zr873       O897   2.434       .  S
Zr873       O899   2.634       .  S
Zr873       O877   2.392   1_545  S
Zr873       O880   2.395       .  S
Zr874       O900   2.438       .  S
Zr874       O901   2.434       .  S
Zr874       O876   2.436       .  S
Zr874       O877   2.400       .  S
Zr874       O878   2.428       .  S
O875        H912   0.992       .  S
O876        H907   0.992       .  S
O876        H921   0.988       .  S
O878        H904   0.966       .  S
O879       Zr889   2.363       .  S
O880       Zr889   2.375   1_545  S
O880        H905   0.966       .  S
C881       C1842   1.525       .  S
C882       C1890   1.539       .  S
C883       C1909   1.472       .  S
O884        H920   0.991       .  S
O885        C887   1.284       .  A
O886        C887   1.269       .  A
C887       C1922   1.454       .  S
O888       Zr889   2.436       .  S
O888        H917   0.990       .  S
Zr889       O892   2.436       .  S
Zr889       O893   2.437   1_565  S
Zr889       O894   2.442       .  S
O890        C895   1.282       .  A
O891        H908   0.991       .  S
O891        H923   0.988       .  S
O892        H909   0.990       .  S
O893        H913   0.991       .  S
O893        H922   0.989       .  S
O894        C895   1.286       .  A
C895       C1858   1.497       .  S
O896        H915   0.990       .  S
O896        H919   0.991       .  S
O897        H911   0.991       .  S
O897        H918   0.991       .  S
O898        C902   1.256       .  A
O899        C902   1.318       .  A
O900        H910   0.989       .  S
O901        H914   0.989       .  S
C902       C1877   1.538       .  S
Zr925       O926   2.437   1_565  S
Zr925       O927   2.445       .  S
Zr925       O928   2.398       .  S
Zr925       O931   2.374   1_565  S
Zr925       O933   2.314       .  S
Zr925       O934   2.396       .  S
Zr925       O935   2.417   1_565  S
Zr925       O936   2.390   1_565  S
O926        H982   0.991   1_545  S
O926        H990   0.990   1_545  S
O927        C947   1.283       .  A
O928        C949   1.271       .  A
O929       Zr939   2.619       .  S
O929        C948   1.316       .  A
O930       Zr938   2.398       .  S
O930        C949   1.272       .  A
O931        C948   1.263       .  A
O932       Zr940   2.453       .  S
O932        C947   1.285       .  A
O933       Zr938   2.334       .  S
O933       Zr940   2.325       .  S
O934       Zr939   2.442   1_565  S
O934       Zr940   2.403       .  S
O934        H969   0.966       .  S
O935       Zr938   2.398   1_545  S
O935       Zr955   2.441       .  S
O935        H972   0.966       .  S
O936       Zr939   2.409       .  S
O936       Zr955   2.406       .  S
Zr937       O962   2.449       .  S
Zr937       O956   2.476       .  S
Zr937       O964   2.416       .  S
Zr937       O952   2.386   1_545  S
Zr937       O943   2.408   1_545  S
Zr937       O944   2.464   1_545  S
Zr937       O945   2.374       .  S
Zr937       O946   2.392       .  S
Zr938       O957   2.435       .  S
Zr938       O950   2.434       .  S
Zr938       O951   2.404       .  S
Zr938       O944   2.389       .  S
Zr938       O945   2.350   1_565  S
Zr939       O941   2.435       .  S
Zr939       O963   2.435       .  S
Zr939       O965   2.645       .  S
Zr939       O943   2.369   1_545  S
Zr939       O946   2.433       .  S
Zr940       O966   2.435       .  S
Zr940       O967   2.436       .  S
Zr940       O942   2.435       .  S
Zr940       O943   2.371       .  S
Zr940       O944   2.435       .  S
O941        H978   0.990       .  S
O942        H973   0.988       .  S
O942        H987   0.990       .  S
O944        H970   0.965       .  S
O945       Zr955   2.371       .  S
O946       Zr955   2.416       .  S
O946        H971   0.966       .  S
C947       C1810   1.509       .  S
C948       C1893   1.537       .  S
C949       C1826   1.447       .  S
O950        H986   0.990       .  S
O951        C953   1.278       .  A
O952        C953   1.273       .  A
C953       C2709   1.433       .  S
O954       Zr955   2.437       .  S
O954        H983   0.989       .  S
Zr955       O958   2.436       .  S
Zr955       O959   2.439       .  S
Zr955       O960   2.455       .  S
O956        C961   1.290       .  A
O957        H974   0.988       .  S
O957        H989   0.992       .  S
O958        H975   0.990       .  S
O959        H979   0.989       .  S
O959        H988   0.991       .  S
O960        C961   1.286       .  A
C961       C2581   1.506       .  S
O962        H981   0.989       .  S
O962        H985   0.992       .  S
O963        H977   0.991       .  S
O963        H984   0.988       .  S
O964        C968   1.279       .  A
O965        C968   1.329       .  A
O966        H976   0.990       .  S
O967        H980   0.990       .  S
C968       C1957   1.540       .  S
Zr991       O992   2.468   1_554  S
Zr991       O993   2.449       .  S
Zr991       O994   2.399   1_554  S
Zr991       O997   2.374       .  S
Zr991       O999   2.365       .  S
Zr991      O1000   2.380       .  S
Zr991      O1001   2.429   1_545  S
Zr991      O1002   2.334   1_545  S
O992       H1048   0.991       .  S
O992       H1056   0.987       .  S
O993       C1013   1.282       .  A
O994       C1015   1.272   1_556  A
O995      Zr1005   2.622       .  S
O995       C1014   1.312       .  A
O996      Zr1004   2.428       .  S
O996       C1015   1.284       .  A
O997       C1014   1.254   1_545  A
O998      Zr1006   2.415       .  S
O998       C1013   1.277       .  A
O999      Zr1004   2.395       .  S
O999      Zr1006   2.380       .  S
O1000     Zr1005   2.417   1_545  S
O1000     Zr1006   2.410       .  S
O1000      H1035   0.968       .  S
O1001     Zr1004   2.395   1_565  S
O1001     Zr1021   2.425       .  S
O1001      H1038   0.966       .  S
O1002     Zr1005   2.276       .  S
O1002     Zr1021   2.325       .  S
Zr1003     O1028   2.438       .  S
Zr1003     O1022   2.454       .  S
Zr1003     O1030   2.458       .  S
Zr1003     O1018   2.448       .  S
Zr1003     O1009   2.374   1_565  S
Zr1003     O1010   2.424   1_565  S
Zr1003     O1011   2.368       .  S
Zr1003     O1012   2.404       .  S
Zr1004     O1023   2.438       .  S
Zr1004     O1016   2.438       .  S
Zr1004     O1017   2.396   1_545  S
Zr1004     O1010   2.404       .  S
Zr1004     O1011   2.388   1_545  S
Zr1005     O1007   2.439       .  S
Zr1005     O1029   2.440       .  S
Zr1005     O1031   2.609       .  S
Zr1005     O1009   2.372   1_565  S
Zr1005     O1012   2.427       .  S
Zr1006     O1032   2.435       .  S
Zr1006     O1033   2.436       .  S
Zr1006     O1008   2.438       .  S
Zr1006     O1009   2.369       .  S
Zr1006     O1010   2.416       .  S
O1007      H1044   0.990       .  S
O1008      H1039   0.993       .  S
O1008      H1053   0.988       .  S
O1010      H1036   0.966       .  S
O1011     Zr1021   2.330       .  S
O1012     Zr1021   2.400       .  S
O1012      H1037   0.969       .  S
C1013      C2229   1.481       .  S
C1014      C1941   1.541   1_554  S
C1015      C2197   1.463   1_554  S
O1016      H1052   0.989       .  S
O1017      C1019   1.277       .  A
O1018      C1019   1.285       .  A
C1019      C1794   1.477       .  S
O1020     Zr1021   2.439       .  S
O1020      H1049   0.991       .  S
Zr1021     O1024   2.448       .  S
Zr1021     O1025   2.438       .  S
Zr1021     O1026   2.491       .  S
O1022      C1027   1.287       .  A
O1023      H1040   0.990   1_545  S
O1023      H1055   0.989       .  S
O1024      H1041   0.991       .  S
O1025      H1045   0.990       .  S
O1025      H1054   0.991       .  S
O1026      C1027   1.291       .  A
C1027      C1781   1.515       .  S
O1028      H1047   0.992   1_565  S
O1028      H1051   0.988       .  S
O1029      H1043   0.988   1_565  S
O1029      H1050   0.991   1_565  S
O1030      C1034   1.291       .  A
O1031      C1034   1.321       .  A
O1032      H1042   0.989       .  S
O1033      H1046   0.991       .  S
C1034      C1874   1.551   1_565  S
Zr1057     O1058   2.437       .  S
Zr1057     O1059   2.424       .  S
Zr1057     O1060   2.400       .  S
Zr1057     O1063   2.355   1_455  S
Zr1057     O1065   2.355       .  S
Zr1057     O1066   2.394       .  S
Zr1057     O1067   2.406       .  S
Zr1057     O1068   2.412       .  S
O1058      H1114   0.989       .  S
O1058      H1122   0.991       .  S
O1059      C1079   1.281       .  A
O1060      C1081   1.269       .  A
O1061     Zr1071   2.628       .  S
O1061      C1080   1.316       .  A
O1062     Zr1070   2.426       .  S
O1062      C1081   1.283       .  A
O1063      C1080   1.259       .  A
O1064     Zr1072   2.445       .  S
O1064      C1079   1.287       .  A
O1065     Zr1070   2.361       .  S
O1065     Zr1072   2.328       .  S
O1066     Zr1071   2.404   1_455  S
O1066     Zr1072   2.390       .  S
O1066      H1101   0.966   1_455  S
O1067     Zr1070   2.385       .  S
O1067     Zr1087   2.427       .  S
O1067      H1104   0.967       .  S
O1068     Zr1071   2.393   1_455  S
O1068     Zr1087   2.396       .  S
Zr1069     O1094   2.439       .  S
Zr1069     O1088   2.460       .  S
Zr1069     O1096   2.440       .  S
Zr1069     O1084   2.428       .  S
Zr1069     O1075   2.384       .  S
Zr1069     O1076   2.425       .  S
Zr1069     O1077   2.367       .  S
Zr1069     O1078   2.400       .  S
Zr1070     O1089   2.436       .  S
Zr1070     O1082   2.435       .  S
Zr1070     O1083   2.366       .  S
Zr1070     O1076   2.412       .  S
Zr1070     O1077   2.387       .  S
Zr1071     O1073   2.434       .  S
Zr1071     O1095   2.436       .  S
Zr1071     O1097   2.629       .  S
Zr1071     O1075   2.370   1_655  S
Zr1071     O1078   2.430   1_655  S
Zr1072     O1098   2.435   1_455  S
Zr1072     O1099   2.430       .  S
Zr1072     O1074   2.438       .  S
Zr1072     O1075   2.364       .  S
Zr1072     O1076   2.433       .  S
O1073      H1110   0.989       .  S
O1074      H1105   0.990       .  S
O1074      H1119   0.988       .  S
O1076      H1102   0.966       .  S
O1077     Zr1087   2.355       .  S
O1078     Zr1087   2.407       .  S
O1078      H1103   0.965       .  S
C1079      C1714   1.505   1_455  S
C1080      C1749   1.540       .  S
C1081      C1762   1.461       .  S
O1082      H1118   0.990       .  S
O1083      C1085   1.274       .  A
O1084      C1085   1.281       .  A
C1085      C1925   1.469       .  S
O1086     Zr1087   2.436       .  S
O1086      H1115   0.991       .  S
Zr1087     O1090   2.435       .  S
Zr1087     O1091   2.437       .  S
Zr1087     O1092   2.463       .  S
O1088      C1093   1.288       .  A
O1089      H1106   0.991       .  S
O1089      H1121   0.990       .  S
O1090      H1107   0.990       .  S
O1091      H1111   0.990       .  S
O1091      H1120   0.989       .  S
O1092      C1093   1.288       .  A
C1093      C1778   1.508       .  S
O1094      H1113   0.990       .  S
O1094      H1117   0.990       .  S
O1095      H1109   0.991       .  S
O1095      H1116   0.989       .  S
O1096      C1100   1.286   1_455  A
O1097      C1100   1.325       .  A
O1098      H1108   0.990       .  S
O1099      H1112   0.990       .  S
C1100      C1730   1.553       .  S
Zr1123     O1124   2.436       .  S
Zr1123     O1125   2.448       .  S
Zr1123     O1126   2.449       .  S
Zr1123     O1129   2.416       .  S
Zr1123     O1131   2.366       .  S
Zr1123     O1132   2.406       .  S
Zr1123     O1133   2.421       .  S
Zr1123     O1134   2.401       .  S
O1124      H1180   0.990       .  S
O1124      H1188   0.990       .  S
O1125      C1145   1.285       .  A
O1126      C1147   1.282       .  A
O1127     Zr1137   2.616       .  S
O1127      C1146   1.323       .  A
O1128     Zr1136   2.383       .  S
O1128      C1147   1.271       .  A
O1129      C1146   1.281   1_655  A
O1130     Zr1138   2.479       .  S
O1130      C1145   1.289       .  A
O1131     Zr1136   2.399       .  S
O1131     Zr1138   2.353       .  S
O1132     Zr1137   2.438   1_655  S
O1132     Zr1138   2.387       .  S
O1132      H1167   0.967       .  S
O1133     Zr1136   2.405       .  S
O1133     Zr1153   2.412       .  S
O1133      H1170   0.966       .  S
O1134     Zr1137   2.392   1_655  S
O1134     Zr1153   2.376       .  S
Zr1135     O1160   2.438       .  S
Zr1135     O1154   2.409       .  S
Zr1135     O1162   2.360   1_655  S
Zr1135     O1150   2.373       .  S
Zr1135     O1141   2.423       .  S
Zr1135     O1142   2.400       .  S
Zr1135     O1143   2.359       .  S
Zr1135     O1144   2.381   1_655  S
Zr1136     O1155   2.438       .  S
Zr1136     O1148   2.438       .  S
Zr1136     O1149   2.430       .  S
Zr1136     O1142   2.389       .  S
Zr1136     O1143   2.377       .  S
Zr1137     O1139   2.436       .  S
Zr1137     O1161   2.435       .  S
Zr1137     O1163   2.650       .  S
Zr1137     O1141   2.396   1_455  S
Zr1137     O1144   2.403       .  S
Zr1138     O1164   2.435       .  S
Zr1138     O1165   2.436       .  S
Zr1138     O1140   2.443       .  S
Zr1138     O1141   2.416       .  S
Zr1138     O1142   2.428       .  S
O1139      H1176   0.991       .  S
O1140      H1171   0.990       .  S
O1140      H1185   0.989       .  S
O1142      H1168   0.965       .  S
O1143     Zr1153   2.376       .  S
O1144     Zr1153   2.384   1_455  S
O1144      H1169   0.966       .  S
C1145      C2053   1.512       .  S
C1146      C1698   1.542       .  S
C1147      C1989   1.476       .  S
O1148      H1184   0.987       .  S
O1149      C1151   1.284       .  A
O1150      C1151   1.270       .  A
C1151      C2405   1.470       .  S
O1152     Zr1153   2.436       .  S
O1152      H1181   0.991       .  S
Zr1153     O1156   2.435       .  S
Zr1153     O1157   2.439   1_655  S
Zr1153     O1158   2.439       .  S
O1154      C1159   1.276   1_655  A
O1155      H1172   0.993       .  S
O1155      H1187   0.988       .  S
O1156      H1173   0.988       .  S
O1157      H1177   0.991       .  S
O1157      H1186   0.989       .  S
O1158      C1159   1.285   1_655  A
C1159      C2181   1.481       .  S
O1160      H1179   0.990       .  S
O1160      H1183   0.985       .  S
O1161      H1175   0.992       .  S
O1161      H1182   0.990       .  S
O1162      C1166   1.255       .  A
O1163      C1166   1.321       .  A
O1164      H1174   0.991       .  S
O1165      H1178   0.991       .  S
C1166      C1685   1.554       .  S
Zr1189     O1190   2.436       .  S
Zr1189     O1191   2.441       .  S
Zr1189     O1192   2.452   1_455  S
Zr1189     O1195   2.455       .  S
Zr1189     O1197   2.372       .  S
Zr1189     O1198   2.398       .  S
Zr1189     O1199   2.416   1_455  S
Zr1189     O1200   2.371   1_455  S
O1190      H1246   0.992       .  S
O1190      H1254   0.988   1_455  S
O1191      C1211   1.283       .  A
O1192      C1213   1.288       .  A
O1193     Zr1203   2.601       .  S
O1193      C1212   1.319       .  A
O1194     Zr1202   2.368       .  S
O1194      C1213   1.272       .  A
O1195      C1212   1.291       .  A
O1196     Zr1204   2.484       .  S
O1196      C1211   1.291       .  A
O1197     Zr1202   2.392   1_455  S
O1197     Zr1204   2.342       .  S
O1198     Zr1203   2.428       .  S
O1198     Zr1204   2.394       .  S
O1198      H1233   0.967       .  S
O1199     Zr1202   2.408       .  S
O1199     Zr1219   2.409       .  S
O1199      H1236   0.966       .  S
O1200     Zr1203   2.378   1_655  S
O1200     Zr1219   2.367       .  S
Zr1201     O1226   2.462       .  S
Zr1201     O1220   2.441       .  S
Zr1201     O1228   2.384   1_655  S
Zr1201     O1216   2.399       .  S
Zr1201     O1207   2.428   1_655  S
Zr1201     O1208   2.439   1_655  S
Zr1201     O1209   2.360       .  S
Zr1201     O1210   2.387       .  S
Zr1202     O1221   2.434       .  S
Zr1202     O1214   2.435       .  S
Zr1202     O1215   2.418       .  S
Zr1202     O1208   2.373   1_655  S
Zr1202     O1209   2.386       .  S
Zr1203     O1205   2.435       .  S
Zr1203     O1227   2.435       .  S
Zr1203     O1229   2.624       .  S
Zr1203     O1207   2.369       .  S
Zr1203     O1210   2.429   1_455  S
Zr1204     O1230   2.436       .  S
Zr1204     O1231   2.440       .  S
Zr1204     O1206   2.439       .  S
Zr1204     O1207   2.394       .  S
Zr1204     O1208   2.437       .  S
O1205      H1242   0.990       .  S
O1206      H1237   0.991       .  S
O1206      H1251   0.988       .  S
O1208      H1234   0.965       .  S
O1209     Zr1219   2.375       .  S
O1210     Zr1219   2.408       .  S
O1210      H1235   0.966       .  S
C1211      C1650   1.511       .  S
C1212      C1746   1.549   1_455  S
C1213      C1666   1.467       .  S
O1214      H1250   0.988       .  S
O1215      C1217   1.283       .  A
O1216      C1217   1.272       .  A
C1217      C2117   1.459       .  S
O1218     Zr1219   2.433       .  S
O1218      H1247   0.991       .  S
Zr1219     O1222   2.439       .  S
Zr1219     O1223   2.438       .  S
Zr1219     O1224   2.420       .  S
O1220      C1225   1.280       .  A
O1221      H1238   0.988       .  S
O1221      H1253   0.991       .  S
O1222      H1239   0.989       .  S
O1223      H1243   0.989       .  S
O1223      H1252   0.991       .  S
O1224      C1225   1.278       .  A
C1225      C1970   1.483       .  S
O1226      H1245   0.991       .  S
O1226      H1249   0.987       .  S
O1227      H1241   0.990       .  S
O1227      H1248   0.990       .  S
O1228      C1232   1.254       .  A
O1229      C1232   1.313       .  A
O1230      H1240   0.992       .  S
O1231      H1244   0.990       .  S
C1232      C1701   1.543       .  S
Zr1255     O1256   2.436   1_655  S
Zr1255     O1257   2.456       .  S
Zr1255     O1258   2.445       .  S
Zr1255     O1261   2.444       .  S
Zr1255     O1263   2.362       .  S
Zr1255     O1264   2.404       .  S
Zr1255     O1265   2.424   1_655  S
Zr1255     O1266   2.398   1_655  S
O1256      H1312   0.990       .  S
O1256      H1320   0.987   1_455  S
O1257      C1277   1.288       .  A
O1258      C1279   1.281       .  A
O1259     Zr1269   2.618   1_455  S
O1259      C1278   1.323       .  A
O1260     Zr1268   2.408   1_655  S
O1260      C1279   1.275       .  A
O1261      C1278   1.287   1_655  A
O1262     Zr1270   2.468       .  S
O1262      C1277   1.289       .  A
O1263     Zr1268   2.369   1_655  S
O1263     Zr1270   2.321       .  S
O1264     Zr1269   2.421       .  S
O1264     Zr1270   2.404       .  S
O1264      H1299   0.966       .  S
O1265     Zr1268   2.409       .  S
O1265     Zr1285   2.413       .  S
O1265      H1302   0.966       .  S
O1266     Zr1269   2.401   1_455  S
O1266     Zr1285   2.395       .  S
Zr1267     O1292   2.437   1_545  S
Zr1267     O1286   2.428       .  S
Zr1267     O1294   2.355       .  S
Zr1267     O1282   2.371       .  S
Zr1267     O1273   2.414   1_455  S
Zr1267     O1274   2.399   1_455  S
Zr1267     O1275   2.352       .  S
Zr1267     O1276   2.384       .  S
Zr1268     O1287   2.437       .  S
Zr1268     O1280   2.434       .  S
Zr1268     O1281   2.433       .  S
Zr1268     O1274   2.392   1_455  S
Zr1268     O1275   2.379       .  S
Zr1269     O1271   2.437   1_655  S
Zr1269     O1293   2.435       .  S
Zr1269     O1295   2.644       .  S
Zr1269     O1273   2.388       .  S
Zr1269     O1276   2.410   1_655  S
Zr1270     O1296   2.436       .  S
Zr1270     O1297   2.435       .  S
Zr1270     O1272   2.437       .  S
Zr1270     O1273   2.392       .  S
Zr1270     O1274   2.428       .  S
O1271      H1308   0.989       .  S
O1272      H1303   0.988       .  S
O1272      H1317   0.992       .  S
O1274      H1300   0.967       .  S
O1275     Zr1285   2.363       .  S
O1276     Zr1285   2.387       .  S
O1276      H1301   0.966       .  S
C1277      C2341   1.505       .  S
C1278      C1682   1.560       .  S
C1279      C2210   1.473       .  S
O1280      H1316   0.991   1_455  S
O1281      C1283   1.283       .  A
O1282      C1283   1.271       .  A
C1283      C1797   1.475   1_545  S
O1284     Zr1285   2.436       .  S
O1284      H1313   0.990       .  S
Zr1285     O1288   2.438       .  S
Zr1285     O1289   2.438       .  S
Zr1285     O1290   2.439       .  S
O1286      C1291   1.281       .  A
O1287      H1304   0.990       .  S
O1287      H1319   0.991       .  S
O1288      H1305   0.990       .  S
O1289      H1309   0.992       .  S
O1289      H1318   0.988       .  S
O1290      C1291   1.284       .  A
C1291      C1861   1.483       .  S
O1292      H1311   0.991   1_455  S
O1292      H1315   0.990       .  S
O1293      H1307   0.989       .  S
O1293      H1314   0.990       .  S
O1294      C1298   1.257   1_455  A
O1295      C1298   1.320       .  A
O1296      H1306   0.991       .  S
O1297      H1310   0.990       .  S
C1298      C1733   1.547   1_545  S
Zr1321     O1322   2.436   1_655  S
Zr1321     O1323   2.448       .  S
Zr1321     O1324   2.372       .  S
Zr1321     O1327   2.362   1_655  S
Zr1321     O1329   2.360       .  S
Zr1321     O1330   2.382       .  S
Zr1321     O1331   2.411       .  S
Zr1321     O1332   2.408       .  S
O1322      H1378   0.985       .  S
O1322      H1386   0.991       .  S
O1323      C1343   1.287       .  A
O1324      C1345   1.273       .  A
O1325     Zr1335   2.644       .  S
O1325      C1344   1.323   1_655  A
O1326     Zr1334   2.441       .  S
O1326      C1345   1.285       .  A
O1327      C1344   1.263       .  A
O1328     Zr1336   2.432       .  S
O1328      C1343   1.283       .  A
O1329     Zr1334   2.380       .  S
O1329     Zr1336   2.354       .  S
O1330     Zr1335   2.392       .  S
O1330     Zr1336   2.395       .  S
O1330      H1365   0.965       .  S
O1331     Zr1334   2.395       .  S
O1331     Zr1351   2.426       .  S
O1331      H1368   0.966       .  S
O1332     Zr1335   2.378       .  S
O1332     Zr1351   2.398       .  S
Zr1333     O1358   2.434       .  S
Zr1333     O1352   2.463       .  S
Zr1333     O1360   2.426       .  S
Zr1333     O1348   2.407       .  S
Zr1333     O1339   2.378       .  S
Zr1333     O1340   2.455       .  S
Zr1333     O1341   2.376       .  S
Zr1333     O1342   2.402       .  S
Zr1334     O1353   2.437       .  S
Zr1334     O1346   2.431       .  S
Zr1334     O1347   2.417       .  S
Zr1334     O1340   2.412       .  S
Zr1334     O1341   2.385       .  S
Zr1335     O1337   2.433       .  S
Zr1335     O1359   2.436       .  S
Zr1335     O1361   2.631       .  S
Zr1335     O1339   2.361       .  S
Zr1335     O1342   2.431       .  S
Zr1336     O1362   2.433       .  S
Zr1336     O1363   2.436       .  S
Zr1336     O1338   2.440       .  S
Zr1336     O1339   2.371       .  S
Zr1336     O1340   2.414       .  S
O1337      H1374   0.989       .  S
O1338      H1369   0.991       .  S
O1338      H1383   0.990       .  S
O1340      H1366   0.965       .  S
O1341     Zr1351   2.339       .  S
O1342     Zr1351   2.409       .  S
O1342      H1367   0.966       .  S
C1343      C1717   1.478       .  S
C1344      C1618   1.545       .  S
C1345      C1669   1.468       .  S
O1346      H1382   0.989       .  S
O1347      C1349   1.271       .  A
O1348      C1349   1.271       .  A
C1349      C2098   1.455       .  S
O1350     Zr1351   2.434       .  S
O1350      H1379   0.990   1_655  S
Zr1351     O1354   2.437       .  S
Zr1351     O1355   2.439       .  S
Zr1351     O1356   2.462       .  S
O1352      C1357   1.287       .  A
O1353      H1370   0.990       .  S
O1353      H1385   0.990       .  S
O1354      H1371   0.991       .  S
O1355      H1375   0.991       .  S
O1355      H1384   0.990       .  S
O1356      C1357   1.288       .  A
C1357      C2002   1.511       .  S
O1358      H1377   0.988       .  S
O1358      H1381   0.991       .  S
O1359      H1373   0.992       .  S
O1359      H1380   0.988       .  S
O1360      C1364   1.283       .  A
O1361      C1364   1.327       .  A
O1362      H1372   0.989       .  S
O1363      H1376   0.990       .  S
C1364      C1634   1.538       .  S
Zr1387     O1388   2.448       .  S
Zr1387     O1389   2.443       .  S
Zr1387     O1390   2.394       .  S
Zr1387     O1393   2.418       .  S
Zr1387     O1395   2.359       .  S
Zr1387     O1396   2.393       .  S
Zr1387     O1397   2.425       .  S
Zr1387     O1398   2.374       .  S
O1388      H1444   0.993       .  S
O1388      H1452   0.989       .  S
O1389      C1409   1.284       .  A
O1390      C1411   1.280       .  A
O1391     Zr1401   2.650       .  S
O1391      C1410   1.331       .  A
O1392     Zr1400   2.398       .  S
O1392      C1411   1.277       .  A
O1393      C1410   1.281       .  A
O1394     Zr1402   2.502       .  S
O1394      C1409   1.294       .  A
O1395     Zr1400   2.369       .  S
O1395     Zr1402   2.340       .  S
O1396     Zr1401   2.420       .  S
O1396     Zr1402   2.398       .  S
O1396      H1431   0.968       .  S
O1397     Zr1400   2.402       .  S
O1397     Zr1417   2.426       .  S
O1397      H1434   0.966       .  S
O1398     Zr1401   2.348       .  S
O1398     Zr1417   2.366       .  S
Zr1399     O1424   2.442       .  S
Zr1399     O1418   2.473       .  S
Zr1399     O1426   2.373       .  S
Zr1399     O1414   2.405       .  S
Zr1399     O1406   2.424       .  S
Zr1399     O1407   2.351       .  S
Zr1399     O1408   2.384       .  S
Zr1399     O1405   2.330       .  S
Zr1400     O1419   2.438       .  S
Zr1400     O1412   2.436       .  S
Zr1400     O1413   2.406       .  S
Zr1400     O1406   2.396       .  S
Zr1400     O1407   2.379       .  S
Zr1401     O1403   2.441       .  S
Zr1401     O1425   2.439       .  S
Zr1401     O1427   2.618       .  S
Zr1401     O1408   2.408       .  S
Zr1401     O1405   2.292       .  S
Zr1402     O1428   2.444       .  S
Zr1402     O1429   2.434       .  S
Zr1402     O1404   2.442       .  S
Zr1402     O1406   2.438       .  S
Zr1402     O1405   2.327       .  S
O1403      H1440   0.991       .  S
O1404      H1435   0.992       .  S
O1404      H1449   0.989       .  S
O1406      H1432   0.967       .  S
O1407     Zr1417   2.348       .  S
O1408     Zr1417   2.399       .  S
O1408      H1433   0.967       .  S
C1409      C1845   1.516       .  S
C1410      C1589   1.539       .  S
C1411      C1829   1.449       .  S
O1412      H1448   0.992       .  S
O1413      C1415   1.278       .  A
O1414      C1415   1.274       .  A
C1415      C2725   1.440       .  S
O1416     Zr1417   2.436       .  S
O1416      H1445   0.990       .  S
Zr1417     O1420   2.436       .  S
Zr1417     O1421   2.438       .  S
Zr1417     O1422   2.441       .  S
O1418      C1423   1.290       .  A
O1419      H1436   0.990       .  S
O1419      H1451   0.990       .  S
O1420      H1437   0.991       .  S
O1421      H1441   0.990       .  S
O1421      H1450   0.990       .  S
O1422      C1423   1.285       .  A
C1423      C2434   1.511       .  S
O1424      H1443   0.990       .  S
O1424      H1447   0.991       .  S
O1425      H1439   0.992       .  S
O1425      H1446   0.989       .  S
O1426      C1430   1.262       .  A
O1427      C1430   1.315       .  A
O1428      H1438   0.991       .  S
O1429      H1442   0.990       .  S
C1430      C1605   1.539       .  S
Zr1453     O1454   2.435       .  S
Zr1453     O1455   2.451       .  S
Zr1453     O1456   2.403       .  S
Zr1453     O1459   2.370       .  S
Zr1453     O1461   2.361       .  S
Zr1453     O1462   2.388       .  S
Zr1453     O1463   2.419       .  S
Zr1453     O1464   2.423       .  S
O1454      H1510   0.988       .  S
O1454      H1518   0.991       .  S
O1455      C1475   1.287       .  A
O1456      C1477   1.275       .  A
O1457     Zr1467   2.622       .  S
O1457      C1476   1.318       .  A
O1458     Zr1466   2.411       .  S
O1458      C1477   1.274       .  A
O1459      C1476   1.263       .  A
O1460     Zr1468   2.451       .  S
O1460      C1475   1.288       .  A
O1461     Zr1466   2.384       .  S
O1461     Zr1468   2.360       .  S
O1462     Zr1467   2.401       .  S
O1462     Zr1468   2.388       .  S
O1462      H1497   0.965       .  S
O1463     Zr1466   2.407       .  S
O1463     Zr1483   2.427       .  S
O1463      H1500   0.966       .  S
O1464     Zr1467   2.385       .  S
O1464     Zr1483   2.400       .  S
Zr1465     O1490   2.445       .  S
Zr1465     O1484   2.473       .  S
Zr1465     O1492   2.420       .  S
Zr1465     O1480   2.389       .  S
Zr1465     O1471   2.392       .  S
Zr1465     O1472   2.442       .  S
Zr1465     O1473   2.369       .  S
Zr1465     O1474   2.397       .  S
Zr1466     O1485   2.439       .  S
Zr1466     O1478   2.437       .  S
Zr1466     O1479   2.400       .  S
Zr1466     O1472   2.407       .  S
Zr1466     O1473   2.377       .  S
Zr1467     O1469   2.435       .  S
Zr1467     O1491   2.436       .  S
Zr1467     O1493   2.611       .  S
Zr1467     O1471   2.373       .  S
Zr1467     O1474   2.429       .  S
Zr1468     O1494   2.435       .  S
Zr1468     O1495   2.440       .  S
Zr1468     O1470   2.441       .  S
Zr1468     O1471   2.380       .  S
Zr1468     O1472   2.413       .  S
O1469      H1506   0.990       .  S
O1470      H1501   0.990       .  S
O1470      H1515   0.991       .  S
O1472      H1498   0.963       .  S
O1473     Zr1483   2.342       .  S
O1474     Zr1483   2.407       .  S
O1474      H1499   0.965       .  S
C1475      C2037   1.502       .  S
C1476      C1637   1.534       .  S
C1477      C2021   1.461       .  S
O1478      H1514   0.990       .  S
O1479      C1481   1.271       .  A
O1480      C1481   1.269       .  A
C1481      C2469   1.454       .  S
O1482     Zr1483   2.435       .  S
O1482      H1511   0.990       .  S
Zr1483     O1486   2.436       .  S
Zr1483     O1487   2.443       .  S
Zr1483     O1488   2.462       .  S
O1484      C1489   1.290       .  A
O1485      H1502   0.989       .  S
O1485      H1517   0.991       .  S
O1486      H1503   0.991       .  S
O1487      H1507   0.991       .  S
O1487      H1516   0.989       .  S
O1488      C1489   1.287       .  A
C1489      C2661   1.509       .  S
O1490      H1509   0.993       .  S
O1490      H1513   0.988       .  S
O1491      H1505   0.990       .  S
O1491      H1512   0.989       .  S
O1492      C1496   1.280       .  A
O1493      C1496   1.321       .  A
O1494      H1504   0.988       .  S
O1495      H1508   0.991       .  S
C1496      C1602   1.538       .  S
Zr1519     O1520   2.443       .  S
Zr1519     O1521   2.476       .  S
Zr1519     O1522   2.394       .  S
Zr1519     O1525   2.382       .  S
Zr1519     O1527   2.370       .  S
Zr1519     O1528   2.382       .  S
Zr1519     O1529   2.434       .  S
Zr1519     O1530   2.403       .  S
O1520      H1576   0.990       .  S
O1520      H1584   0.990       .  S
O1521      C1541   1.289       .  A
O1522      C1543   1.266       .  A
O1523     Zr1533   2.621       .  S
O1523      C1542   1.322       .  A
O1524     Zr1532   2.432       .  S
O1524      C1543   1.280       .  A
O1525      C1542   1.272       .  A
O1526     Zr1534   2.427       .  S
O1526      C1541   1.280       .  A
O1527     Zr1532   2.401       .  S
O1527     Zr1534   2.345       .  S
O1528     Zr1533   2.409       .  S
O1528     Zr1534   2.405       .  S
O1528      H1563   0.966       .  S
O1529     Zr1532   2.403       .  S
O1529     Zr1549   2.413       .  S
O1529      H1566   0.966       .  S
O1530     Zr1533   2.378       .  S
O1530     Zr1549   2.405       .  S
Zr1531     O1556   2.442       .  S
Zr1531     O1550   2.477       .  S
Zr1531     O1558   2.418       .  S
Zr1531     O1546   2.386       .  S
Zr1531     O1537   2.380       .  S
Zr1531     O1538   2.448       .  S
Zr1531     O1539   2.363       .  S
Zr1531     O1540   2.403       .  S
Zr1532     O1551   2.436       .  S
Zr1532     O1544   2.437       .  S
Zr1532     O1545   2.415       .  S
Zr1532     O1538   2.408       .  S
Zr1532     O1539   2.394       .  S
Zr1533     O1535   2.434       .  S
Zr1533     O1557   2.436       .  S
Zr1533     O1559   2.625       .  S
Zr1533     O1537   2.345       .  S
Zr1533     O1540   2.447       .  S
Zr1534     O1560   2.438       .  S
Zr1534     O1561   2.439       .  S
Zr1534     O1536   2.440       .  S
Zr1534     O1537   2.351       .  S
Zr1534     O1538   2.436       .  S
O1535      H1572   0.991       .  S
O1536      H1567   0.990       .  S
O1536      H1581   0.990       .  S
O1538      H1564   0.965       .  S
O1539     Zr1549   2.361       .  S
O1540     Zr1549   2.405       .  S
O1540      H1565   0.966       .  S
C1541      C1813   1.495       .  S
C1542      C1586   1.535       .  S
C1543      C1906   1.459       .  S
O1544      H1580   0.990       .  S
O1545      C1547   1.283       .  A
O1546      C1547   1.269       .  A
C1547      C1765   1.444       .  S
O1548     Zr1549   2.435       .  S
O1548      H1577   0.990       .  S
Zr1549     O1552   2.438       .  S
Zr1549     O1553   2.440       .  S
Zr1549     O1554   2.456       .  S
O1550      C1555   1.288       .  A
O1551      H1568   0.989       .  S
O1551      H1583   0.990       .  S
O1552      H1569   0.991       .  S
O1553      H1573   0.990       .  S
O1553      H1582   0.989       .  S
O1554      C1555   1.285       .  A
C1555      C1653   1.513       .  S
O1556      H1575   0.989       .  S
O1556      H1579   0.990       .  S
O1557      H1571   0.987       .  S
O1557      H1578   0.992       .  S
O1558      C1562   1.270       .  A
O1559      C1562   1.319       .  A
O1560      H1570   0.990       .  S
O1561      H1574   0.990       .  S
C1562      C1621   1.543       .  S
C1585      C1586   1.422       .  A
C1585      C1590   1.430       .  A
C1585      H1592   1.083       .  S
C1586      C1587   1.417       .  A
C1587      C1588   1.433       .  A
C1587      C1594   1.504       .  S
C1588      C1589   1.423       .  A
C1588      H1593   1.080       .  S
C1589      C1590   1.417       .  A
C1590      C1591   1.504       .  S
C1591      H1595   1.110       .  S
C1591      H1596   1.110       .  S
C1591      H1597   1.110       .  S
C1594      H1598   1.110       .  S
C1594      H1599   1.111       .  S
C1594      H1600   1.110       .  S
C1601      C1602   1.415       .  A
C1601      C1606   1.432       .  A
C1601      H1608   1.083       .  S
C1602      C1603   1.423       .  A
C1603      C1604   1.434       .  A
C1603      C1610   1.505       .  S
C1604      C1605   1.417       .  A
C1604      H1609   1.082       .  S
C1605      C1606   1.424       .  A
C1606      C1607   1.505       .  S
C1607      H1611   1.111       .  S
C1607      H1612   1.110       .  S
C1607      H1613   1.110       .  S
C1610      H1614   1.110       .  S
C1610      H1615   1.110       .  S
C1610      H1616   1.111       .  S
C1617      C1618   1.419       .  A
C1617      C1622   1.440       .  A
C1617      H1624   1.080       .  S
C1618      C1619   1.427       .  A
C1619      C1620   1.427       .  A
C1619      C1626   1.508       .  S
C1620      C1621   1.411       .  A
C1620      H1625   1.081       .  S
C1621      C1622   1.423       .  A
C1622      C1623   1.502       .  S
C1623      H1627   1.111       .  S
C1623      H1628   1.110       .  S
C1623      H1629   1.110       .  S
C1626      H1630   1.110       .  S
C1626      H1631   1.108       .  S
C1626      H1632   1.111       .  S
C1633      C1634   1.414       .  A
C1633      C1638   1.430       .  A
C1633      H1640   1.078       .  S
C1634      C1635   1.423       .  A
C1635      C1636   1.434       .  A
C1635      C1642   1.504       .  S
C1636      C1637   1.416       .  A
C1636      H1641   1.083       .  S
C1637      C1638   1.422       .  A
C1638      C1639   1.505       .  S
C1639      H1643   1.111       .  S
C1639      H1644   1.110       .  S
C1639      H1645   1.110       .  S
C1642      H1646   1.110       .  S
C1642      H1647   1.110       .  S
C1642      H1648   1.111       .  S
C1649      C1650   1.407       .  A
C1649      C1654   1.417       .  A
C1649      H1656   1.084       .  S
C1650      C1651   1.420       .  A
C1651      C1652   1.420       .  A
C1651      C1658   1.506       .  S
C1652      C1653   1.409       .  A
C1652      H1657   1.084       .  S
C1653      C1654   1.422       .  A
C1654      C1655   1.508       .  S
C1655      H1659   1.110       .  S
C1655      H1660   1.109       .  S
C1655      H1661   1.111       .  S
C1658      H1662   1.110       .  S
C1658      H1663   1.110       .  S
C1658      H1664   1.111       .  S
C1665      C1666   1.401   1_455  A
C1665      C1670   1.397       .  A
C1665      H1672   1.085       .  S
C1666      C1667   1.419       .  A
C1667      C1668   1.393       .  A
C1667      C1674   1.511       .  S
C1668      C1669   1.399       .  A
C1668      H1673   1.083       .  S
C1669      C1670   1.418   1_655  A
C1670      C1671   1.508       .  S
C1671      H1675   1.111       .  S
C1671      H1676   1.108       .  S
C1671      H1677   1.111       .  S
C1674      H1678   1.109       .  S
C1674      H1679   1.110       .  S
C1674      H1680   1.111       .  S
C1681      C1682   1.421       .  A
C1681      C1686   1.448       .  A
C1681      H1688   1.083   1_455  S
C1682      C1683   1.427       .  A
C1683      C1684   1.430       .  A
C1683      C1690   1.503       .  S
C1684      C1685   1.416       .  A
C1684      H1689   1.084       .  S
C1685      C1686   1.428       .  A
C1686      C1687   1.500   1_455  S
C1687      H1691   1.110       .  S
C1687      H1692   1.106       .  S
C1687      H1693   1.110   1_655  S
C1690      H1694   1.107       .  S
C1690      H1695   1.108       .  S
C1690      H1696   1.111       .  S
C1697      C1698   1.416       .  A
C1697      C1702   1.434       .  A
C1697      H1704   1.083       .  S
C1698      C1699   1.425       .  A
C1699      C1700   1.433       .  A
C1699      C1706   1.506       .  S
C1700      C1701   1.416       .  A
C1700      H1705   1.080       .  S
C1701      C1702   1.427       .  A
C1702      C1703   1.504       .  S
C1703      H1707   1.110       .  S
C1703      H1708   1.109       .  S
C1703      H1709   1.111       .  S
C1706      H1710   1.110       .  S
C1706      H1711   1.111       .  S
C1706      H1712   1.111       .  S
C1713      C1714   1.410       .  A
C1713      C1718   1.404       .  A
C1713      H1720   1.083   1_655  S
C1714      C1715   1.428       .  A
C1715      C1716   1.410       .  A
C1715      C1722   1.508       .  S
C1716      C1717   1.398       .  A
C1716      H1721   1.084       .  S
C1717      C1718   1.409       .  A
C1718      C1719   1.507       .  S
C1719      H1723   1.111       .  S
C1719      H1724   1.110       .  S
C1719      H1725   1.111       .  S
C1722      H1726   1.109   1_655  S
C1722      H1727   1.111       .  S
C1722      H1728   1.109       .  S
C1729      C1730   1.413   1_455  A
C1729      C1734   1.425       .  A
C1729      H1736   1.078       .  S
C1730      C1731   1.425       .  A
C1731      C1732   1.447       .  A
C1731      C1738   1.501       .  S
C1732      C1733   1.424       .  A
C1732      H1737   1.081       .  S
C1733      C1734   1.422   1_655  A
C1734      C1735   1.507       .  S
C1735      H1739   1.111       .  S
C1735      H1740   1.110       .  S
C1735      H1741   1.106       .  S
C1738      H1742   1.110       .  S
C1738      H1743   1.110       .  S
C1738      H1744   1.111       .  S
C1745      C1746   1.413       .  A
C1745      C1750   1.421       .  A
C1745      H1752   1.082       .  S
C1746      C1747   1.424   1_655  A
C1747      C1748   1.444       .  A
C1747      C1754   1.501       .  S
C1748      C1749   1.423   1_455  A
C1748      H1753   1.082       .  S
C1749      C1750   1.424       .  A
C1750      C1751   1.510       .  S
C1751      H1755   1.111       .  S
C1751      H1756   1.110       .  S
C1751      H1757   1.108       .  S
C1754      H1758   1.111       .  S
C1754      H1759   1.110       .  S
C1754      H1760   1.111       .  S
C1761      C1762   1.406       .  A
C1761      C1766   1.389       .  A
C1761      H1768   1.083       .  S
C1762      C1763   1.410       .  A
C1763      C1764   1.402       .  A
C1763      C1770   1.504       .  S
C1764      C1765   1.403       .  A
C1764      H1769   1.085       .  S
C1765      C1766   1.397       .  A
C1766      C1767   1.507       .  S
C1767      H1771   1.111       .  S
C1767      H1772   1.110       .  S
C1767      H1773   1.110       .  S
C1770      H1774   1.110       .  S
C1770      H1775   1.109       .  S
C1770      H1776   1.108       .  S
C1777      C1778   1.407       .  A
C1777      C1782   1.419       .  A
C1777      H1784   1.084       .  S
C1778      C1779   1.423       .  A
C1779      C1780   1.415       .  A
C1779      C1786   1.506       .  S
C1780      C1781   1.406       .  A
C1780      H1785   1.084       .  S
C1781      C1782   1.422       .  A
C1782      C1783   1.504       .  S
C1783      H1787   1.111       .  S
C1783      H1788   1.110       .  S
C1783      H1789   1.104       .  S
C1786      H1790   1.111       .  S
C1786      H1791   1.107       .  S
C1786      H1792   1.108       .  S
C1793      C1794   1.412       .  A
C1793      C1798   1.393       .  A
C1793      H1800   1.082       .  S
C1794      C1795   1.416       .  A
C1795      C1796   1.398       .  A
C1795      C1802   1.507       .  S
C1796      C1797   1.407       .  A
C1796      H1801   1.084       .  S
C1797      C1798   1.402       .  A
C1798      C1799   1.504       .  S
C1799      H1803   1.110       .  S
C1799      H1804   1.110   1_565  S
C1799      H1805   1.110       .  S
C1802      H1806   1.108       .  S
C1802      H1807   1.107       .  S
C1802      H1808   1.111       .  S
C1809      C1810   1.410       .  A
C1809      C1814   1.413       .  A
C1809      H1816   1.083       .  S
C1810      C1811   1.422       .  A
C1811      C1812   1.415       .  A
C1811      C1818   1.508       .  S
C1812      C1813   1.404       .  A
C1812      H1817   1.081       .  S
C1813      C1814   1.412       .  A
C1814      C1815   1.506       .  S
C1815      H1819   1.111       .  S
C1815      H1820   1.110       .  S
C1815      H1821   1.110       .  S
C1818      H1822   1.110       .  S
C1818      H1823   1.110       .  S
C1818      H1824   1.109       .  S
C1825      C1826   1.400       .  A
C1825      C1830   1.395       .  A
C1825      H1832   1.085       .  S
C1826      C1827   1.407       .  A
C1827      C1828   1.384       .  A
C1827      C1834   1.499       .  S
C1828      C1829   1.396       .  A
C1828      H1833   1.086       .  S
C1829      C1830   1.414       .  A
C1830      C1831   1.509       .  S
C1831      H1835   1.110       .  S
C1831      H1836   1.107       .  S
C1831      H1837   1.111       .  S
C1834      H1838   1.102       .  S
C1834      H1839   1.110       .  S
C1834      H1840   1.109       .  S
C1841      C1842   1.417       .  A
C1841      C1846   1.425       .  A
C1841      H1848   1.083       .  S
C1842      C1843   1.427       .  A
C1843      C1844   1.410       .  A
C1843      C1850   1.507       .  S
C1844      C1845   1.405       .  A
C1844      H1849   1.083       .  S
C1845      C1846   1.417       .  A
C1846      C1847   1.504       .  S
C1847      H1851   1.111       .  S
C1847      H1852   1.110       .  S
C1847      H1853   1.110       .  S
C1850      H1854   1.104       .  S
C1850      H1855   1.109       .  S
C1850      H1856   1.111       .  S
C1857      C1858   1.406       .  A
C1857      C1862   1.406       .  A
C1857      H1864   1.084       .  S
C1858      C1859   1.424   1_565  A
C1859      C1860   1.406       .  A
C1859      C1866   1.505       .  S
C1860      C1861   1.399       .  A
C1860      H1865   1.084       .  S
C1861      C1862   1.414   1_545  A
C1862      C1863   1.505       .  S
C1863      H1867   1.111       .  S
C1863      H1868   1.110       .  S
C1863      H1869   1.111   1_565  S
C1866      H1870   1.110   1_545  S
C1866      H1871   1.105       .  S
C1866      H1872   1.111       .  S
C1873      C1874   1.416       .  A
C1873      C1878   1.424       .  A
C1873      H1880   1.081       .  S
C1874      C1875   1.423       .  A
C1875      C1876   1.443       .  A
C1875      C1882   1.502   1_545  S
C1876      C1877   1.422       .  A
C1876      H1881   1.081       .  S
C1877      C1878   1.421       .  A
C1878      C1879   1.508       .  S
C1879      H1883   1.111       .  S
C1879      H1884   1.110       .  S
C1879      H1885   1.106       .  S
C1882      H1886   1.110       .  S
C1882      H1887   1.110       .  S
C1882      H1888   1.111       .  S
C1889      C1890   1.414       .  A
C1889      C1894   1.427       .  A
C1889      H1896   1.083       .  S
C1890      C1891   1.425       .  A
C1891      C1892   1.436       .  A
C1891      C1898   1.503       .  S
C1892      C1893   1.418       .  A
C1892      H1897   1.081       .  S
C1893      C1894   1.423       .  A
C1894      C1895   1.507       .  S
C1895      H1899   1.110       .  S
C1895      H1900   1.110       .  S
C1895      H1901   1.109   1_545  S
C1898      H1902   1.109       .  S
C1898      H1903   1.110       .  S
C1898      H1904   1.110       .  S
C1905      C1906   1.400       .  A
C1905      C1910   1.399       .  A
C1905      H1912   1.085       .  S
C1906      C1907   1.410       .  A
C1907      C1908   1.393       .  A
C1907      C1914   1.510       .  S
C1908      C1909   1.405       .  A
C1908      H1913   1.084       .  S
C1909      C1910   1.416       .  A
C1910      C1911   1.506       .  S
C1911      H1915   1.109       .  S
C1911      H1916   1.103       .  S
C1911      H1917   1.110       .  S
C1914      H1918   1.110       .  S
C1914      H1919   1.108       .  S
C1914      H1920   1.111       .  S
C1921      C1922   1.407       .  A
C1921      C1926   1.396       .  A
C1921      H1928   1.084       .  S
C1922      C1923   1.399       .  A
C1923      C1924   1.387       .  A
C1923      C1930   1.507       .  S
C1924      C1925   1.412       .  A
C1924      H1929   1.084       .  S
C1925      C1926   1.413       .  A
C1926      C1927   1.508       .  S
C1927      H1931   1.109       .  S
C1927      H1932   1.111       .  S
C1927      H1933   1.110       .  S
C1930      H1934   1.111       .  S
C1930      H1935   1.110       .  S
C1930      H1936   1.110       .  S
C1937      C1938   1.416       .  A
C1937      C1942   1.433       .  A
C1937      H1944   1.080       .  S
C1938      C1939   1.423       .  A
C1939      C1940   1.436       .  A
C1939      C1946   1.503       .  S
C1940      C1941   1.418       .  A
C1940      H1945   1.081       .  S
C1941      C1942   1.424       .  A
C1942      C1943   1.504       .  S
C1943      H1947   1.111       .  S
C1943      H1948   1.111       .  S
C1943      H1949   1.110       .  S
C1946      H1950   1.111       .  S
C1946      H1951   1.110       .  S
C1946      H1952   1.111       .  S
C1953      C1954   1.415   1_545  A
C1953      C1958   1.431       .  A
C1953      H1960   1.083       .  S
C1954      C1955   1.426       .  A
C1955      C1956   1.437       .  A
C1955      C1962   1.503       .  S
C1956      C1957   1.418   1_565  A
C1956      H1961   1.083       .  S
C1957      C1958   1.426       .  A
C1958      C1959   1.505       .  S
C1959      H1963   1.110       .  S
C1959      H1964   1.109       .  S
C1959      H1965   1.111       .  S
C1962      H1966   1.110       .  S
C1962      H1967   1.110       .  S
C1962      H1968   1.111       .  S
C1969      C1970   1.402       .  A
C1969      C1974   1.409       .  A
C1969      H1976   1.084       .  S
C1970      C1971   1.412       .  A
C1971      C1972   1.406       .  A
C1971      C1978   1.508       .  S
C1972      C1973   1.409       .  A
C1972      H1977   1.084       .  S
C1973      C1974   1.422       .  A
C1974      C1975   1.507       .  S
C1975      H1979   1.111       .  S
C1975      H1980   1.109       .  S
C1975      H1981   1.110       .  S
C1978      H1982   1.109       .  S
C1978      H1983   1.111       .  S
C1978      H1984   1.111       .  S
C1985      C1986   1.402       .  A
C1985      C1990   1.399       .  A
C1985      H1992   1.085       .  S
C1986      C1987   1.402       .  A
C1987      C1988   1.397       .  A
C1987      C1994   1.506       .  S
C1988      C1989   1.411       .  A
C1988      H1993   1.084       .  S
C1989      C1990   1.414       .  A
C1990      C1991   1.508       .  S
C1991      H1995   1.111       .  S
C1991      H1996   1.110       .  S
C1991      H1997   1.110       .  S
C1994      H1998   1.110       .  S
C1994      H1999   1.110       .  S
C1994      H2000   1.111       .  S
C2001      C2002   1.409       .  A
C2001      C2006   1.415       .  A
C2001      H2008   1.084       .  S
C2002      C2003   1.425       .  A
C2003      C2004   1.417       .  A
C2003      C2010   1.508       .  S
C2004      C2005   1.404       .  A
C2004      H2009   1.084       .  S
C2005      C2006   1.416       .  A
C2006      C2007   1.505       .  S
C2007      H2011   1.111       .  S
C2007      H2012   1.110       .  S
C2007      H2013   1.105       .  S
C2010      H2014   1.110       .  S
C2010      H2015   1.109       .  S
C2010      H2016   1.111       .  S
C2017      C2018   1.403       .  A
C2017      C2022   1.396       .  A
C2017      H2024   1.084       .  S
C2018      C2019   1.412       .  A
C2019      C2020   1.391       .  A
C2019      C2026   1.511       .  S
C2020      C2021   1.401       .  A
C2020      H2025   1.081       .  S
C2021      C2022   1.410       .  A
C2022      C2023   1.506       .  S
C2023      H2027   1.111       .  S
C2023      H2028   1.110       .  S
C2023      H2029   1.105       .  S
C2026      H2030   1.108       .  S
C2026      H2031   1.111       .  S
C2026      H2032   1.111       .  S
C2033      C2034   1.407       .  A
C2033      C2038   1.414       .  A
C2033      H2040   1.084       .  S
C2034      C2035   1.420       .  A
C2035      C2036   1.410       .  A
C2035      C2042   1.508       .  S
C2036      C2037   1.405       .  A
C2036      H2041   1.084       .  S
C2037      C2038   1.420       .  A
C2038      C2039   1.505       .  S
C2039      H2043   1.111       .  S
C2039      H2044   1.110       .  S
C2039      H2045   1.110       .  S
C2042      H2046   1.110       .  S
C2042      H2047   1.109       .  S
C2042      H2048   1.111       .  S
C2049      C2050   1.407       .  A
C2049      C2054   1.407       .  A
C2049      H2056   1.083       .  S
C2050      C2051   1.430       .  A
C2051      C2052   1.425       .  A
C2051      C2058   1.506       .  S
C2052      C2053   1.406       .  A
C2052      H2057   1.083       .  S
C2053      C2054   1.416       .  A
C2054      C2055   1.498       .  S
C2055      H2059   1.111       .  S
C2055      H2060   1.108       .  S
C2055      H2061   1.109       .  S
C2058      H2062   1.110       .  S
C2058      H2063   1.110       .  S
C2058      H2064   1.110       .  S
C2065      C2066   1.404       .  A
C2065      C2070   1.429       .  A
C2065      H2072   1.083       .  S
C2066      C2067   1.433       .  A
C2067      C2068   1.428       .  A
C2067      C2074   1.505       .  S
C2068      C2069   1.407       .  A
C2068      H2073   1.084       .  S
C2069      C2070   1.435       .  A
C2070      C2071   1.504       .  S
C2071      H2075   1.111       .  S
C2071      H2076   1.108       .  S
C2071      H2077   1.109       .  S
C2074      H2078   1.109       .  S
C2074      H2079   1.107       .  S
C2074      H2080   1.110       .  S
C2081      C2082   1.424       .  A
C2081      C2086   1.432       .  A
C2081      H2088   1.082       .  S
C2082      C2083   1.415       .  A
C2083      C2084   1.424       .  A
C2083      C2090   1.506       .  S
C2084      C2085   1.421       .  A
C2084      H2089   1.082       .  S
C2085      C2086   1.416       .  A
C2086      C2087   1.503       .  S
C2087      H2091   1.111       .  S
C2087      H2092   1.110       .  S
C2087      H2093   1.110       .  S
C2090      H2094   1.111       .  S
C2090      H2095   1.110       .  S
C2090      H2096   1.111       .  S
C2097      C2098   1.398       .  A
C2097      C2102   1.398       .  A
C2097      H2104   1.084       .  S
C2098      C2099   1.408       .  A
C2099      C2100   1.390       .  A
C2099      C2106   1.503       .  S
C2100      C2101   1.400       .  A
C2100      H2105   1.085       .  S
C2101      C2102   1.416       .  A
C2102      C2103   1.505       .  S
C2103      H2107   1.111       .  S
C2103      H2108   1.104       .  S
C2103      H2109   1.109       .  S
C2106      H2110   1.108       .  S
C2106      H2111   1.110       .  S
C2106      H2112   1.110       .  S
C2113      C2114   1.409       .  A
C2113      C2118   1.395       .  A
C2113      H2120   1.084       .  S
C2114      C2115   1.419       .  A
C2115      C2116   1.402       .  A
C2115      C2122   1.507       .  S
C2116      C2117   1.401       .  A
C2116      H2121   1.083       .  S
C2117      C2118   1.400       .  A
C2118      C2119   1.503       .  S
C2119      H2123   1.111       .  S
C2119      H2124   1.110       .  S
C2119      H2125   1.110       .  S
C2122      H2126   1.110       .  S
C2122      H2127   1.108       .  S
C2122      H2128   1.111       .  S
C2129      C2130   1.413       .  A
C2129      C2134   1.433       .  A
C2129      H2136   1.078       .  S
C2130      C2131   1.423       .  A
C2131      C2132   1.427       .  A
C2131      C2138   1.505       .  S
C2132      C2133   1.413       .  A
C2132      H2137   1.077       .  S
C2133      C2134   1.422       .  A
C2134      C2135   1.504       .  S
C2135      H2139   1.110       .  S
C2135      H2140   1.110       .  S
C2135      H2141   1.110       .  S
C2138      H2142   1.110       .  S
C2138      H2143   1.110       .  S
C2138      H2144   1.110       .  S
C2145      C2146   1.415       .  A
C2145      C2150   1.432       .  A
C2145      H2152   1.083       .  S
C2146      C2147   1.424       .  A
C2147      C2148   1.425       .  A
C2147      C2154   1.507       .  S
C2148      C2149   1.411       .  A
C2148      H2153   1.081       .  S
C2149      C2150   1.423       .  A
C2150      C2151   1.504       .  S
C2151      H2155   1.111       .  S
C2151      H2156   1.110       .  S
C2151      H2157   1.110       .  S
C2154      H2158   1.110       .  S
C2154      H2159   1.110       .  S
C2154      H2160   1.111       .  S
C2161      C2162   1.410       .  A
C2161      C2166   1.418       .  A
C2161      H2168   1.083       .  S
C2162      C2163   1.418       .  A
C2163      C2164   1.422       .  A
C2163      C2170   1.504       .  S
C2164      C2165   1.412       .  A
C2164      H2169   1.083       .  S
C2165      C2166   1.419       .  A
C2166      C2167   1.506       .  S
C2167      H2171   1.111       .  S
C2167      H2172   1.109       .  S
C2167      H2173   1.110       .  S
C2170      H2174   1.109       .  S
C2170      H2175   1.110       .  S
C2170      H2176   1.110       .  S
C2177      C2178   1.405       .  A
C2177      C2182   1.404       .  A
C2177      H2184   1.084       .  S
C2178      C2179   1.419       .  A
C2179      C2180   1.404       .  A
C2179      C2186   1.508   1_455  S
C2180      C2181   1.402       .  A
C2180      H2185   1.084   1_455  S
C2181      C2182   1.417       .  A
C2182      C2183   1.509       .  S
C2183      H2187   1.111       .  S
C2183      H2188   1.110       .  S
C2183      H2189   1.110       .  S
C2186      H2190   1.110       .  S
C2186      H2191   1.110   1_655  S
C2186      H2192   1.111       .  S
C2193      C2194   1.414       .  A
C2193      C2198   1.391       .  A
C2193      H2200   1.084       .  S
C2194      C2195   1.416       .  A
C2195      C2196   1.401       .  A
C2195      C2202   1.504       .  S
C2196      C2197   1.404       .  A
C2196      H2201   1.084       .  S
C2197      C2198   1.400       .  A
C2198      C2199   1.503       .  S
C2199      H2203   1.110       .  S
C2199      H2204   1.110       .  S
C2199      H2205   1.111       .  S
C2202      H2206   1.109       .  S
C2202      H2207   1.108       .  S
C2202      H2208   1.111       .  S
C2209      C2210   1.410       .  A
C2209      C2214   1.390       .  A
C2209      H2216   1.080       .  S
C2210      C2211   1.412       .  A
C2211      C2212   1.396       .  A
C2211      C2218   1.505       .  S
C2212      C2213   1.404       .  A
C2212      H2217   1.084       .  S
C2213      C2214   1.401       .  A
C2214      C2215   1.506       .  S
C2215      H2219   1.110       .  S
C2215      H2220   1.111   1_655  S
C2215      H2221   1.108       .  S
C2218      H2222   1.108       .  S
C2218      H2223   1.109       .  S
C2218      H2224   1.111       .  S
C2225      C2226   1.407       .  A
C2225      C2230   1.402       .  A
C2225      H2232   1.084   1_554  S
C2226      C2227   1.420       .  A
C2227      C2228   1.409       .  A
C2227      C2234   1.506       .  S
C2228      C2229   1.402       .  A
C2228      H2233   1.084       .  S
C2229      C2230   1.412       .  A
C2230      C2231   1.509       .  S
C2231      H2235   1.111       .  S
C2231      H2236   1.108       .  S
C2231      H2237   1.111       .  S
C2234      H2238   1.108       .  S
C2234      H2239   1.110       .  S
C2234      H2240   1.108       .  S
C2241      C2242   1.407       .  A
C2241      C2246   1.416       .  A
C2241      H2248   1.085       .  S
C2242      C2243   1.427       .  A
C2243      C2244   1.440       .  A
C2243      C2250   1.499   1_554  S
C2244      C2245   1.416       .  A
C2244      H2249   1.083   1_554  S
C2245      C2246   1.425       .  A
C2246      C2247   1.500       .  S
C2247      H2251   1.107       .  S
C2247      H2252   1.104       .  S
C2247      H2253   1.110       .  S
C2250      H2254   1.106       .  S
C2250      H2255   1.110   1_556  S
C2250      H2256   1.111       .  S
C2257      C2258   1.404       .  A
C2257      C2262   1.399       .  A
C2257      H2264   1.084       .  S
C2258      C2259   1.422       .  A
C2259      C2260   1.395       .  A
C2259      C2266   1.507       .  S
C2260      C2261   1.397       .  A
C2260      H2265   1.085       .  S
C2261      C2262   1.415       .  A
C2262      C2263   1.505       .  S
C2263      H2267   1.107       .  S
C2263      H2268   1.105       .  S
C2263      H2269   1.109       .  S
C2266      H2270   1.111       .  S
C2266      H2271   1.111       .  S
C2266      H2272   1.108       .  S
C2273      C2274   1.407       .  A
C2273      C2278   1.420       .  A
C2273      H2280   1.083       .  S
C2274      C2275   1.414       .  A
C2275      C2276   1.421       .  A
C2275      C2282   1.504       .  S
C2276      C2277   1.416       .  A
C2276      H2281   1.083       .  S
C2277      C2278   1.425       .  A
C2278      C2279   1.506       .  S
C2279      H2283   1.109       .  S
C2279      H2284   1.108       .  S
C2279      H2285   1.111       .  S
C2282      H2286   1.110       .  S
C2282      H2287   1.111       .  S
C2282      H2288   1.111       .  S
C2289      C2290   1.411       .  A
C2289      C2294   1.424       .  A
C2289      H2296   1.084       .  S
C2290      C2291   1.430       .  A
C2291      C2292   1.439       .  A
C2291      C2298   1.497       .  S
C2292      C2293   1.414       .  A
C2292      H2297   1.083       .  S
C2293      C2294   1.426       .  A
C2294      C2295   1.499       .  S
C2295      H2299   1.110   1_554  S
C2295      H2300   1.104       .  S
C2295      H2301   1.110       .  S
C2298      H2302   1.107       .  S
C2298      H2303   1.109       .  S
C2298      H2304   1.111       .  S
C2305      C2306   1.409       .  A
C2305      C2310   1.394       .  A
C2305      H2312   1.084   1_554  S
C2306      C2307   1.424       .  A
C2307      C2308   1.397       .  A
C2307      C2314   1.506       .  S
C2308      C2309   1.399       .  A
C2308      H2313   1.085       .  S
C2309      C2310   1.407       .  A
C2310      C2311   1.506       .  S
C2311      H2315   1.110       .  S
C2311      H2316   1.110   1_554  S
C2311      H2317   1.110       .  S
C2314      H2318   1.110   1_554  S
C2314      H2319   1.106       .  S
C2314      H2320   1.111       .  S
C2321      C2322   1.408       .  A
C2321      C2326   1.407   1_554  A
C2321      H2328   1.083       .  S
C2322      C2323   1.422   1_554  A
C2323      C2324   1.411       .  A
C2323      C2330   1.509       .  S
C2324      C2325   1.404       .  A
C2324      H2329   1.084       .  S
C2325      C2326   1.413       .  A
C2326      C2327   1.507   1_556  S
C2327      H2331   1.110       .  S
C2327      H2332   1.110       .  S
C2327      H2333   1.110   1_554  S
C2330      H2334   1.110       .  S
C2330      H2335   1.111       .  S
C2330      H2336   1.111       .  S
C2337      C2338   1.410       .  A
C2337      C2342   1.416       .  A
C2337      H2344   1.083       .  S
C2338      C2339   1.416       .  A
C2339      C2340   1.415       .  A
C2339      C2346   1.506       .  S
C2340      C2341   1.410       .  A
C2340      H2345   1.083       .  S
C2341      C2342   1.415       .  A
C2342      C2343   1.505       .  S
C2343      H2347   1.111       .  S
C2343      H2348   1.109       .  S
C2343      H2349   1.110       .  S
C2346      H2350   1.109       .  S
C2346      H2351   1.111       .  S
C2346      H2352   1.111       .  S
C2353      C2354   1.414       .  A
C2353      C2358   1.440       .  A
C2353      H2360   1.083       .  S
C2354      C2355   1.429   1_556  A
C2355      C2356   1.422       .  A
C2355      C2362   1.504       .  S
C2356      C2357   1.409   1_554  A
C2356      H2361   1.085       .  S
C2357      C2358   1.428       .  A
C2358      C2359   1.497       .  S
C2359      H2363   1.110       .  S
C2359      H2364   1.107   1_655  S
C2359      H2365   1.110   1_655  S
C2362      H2366   1.109       .  S
C2362      H2367   1.105       .  S
C2362      H2368   1.110       .  S
C2369      C2370   1.418       .  A
C2369      C2374   1.443       .  A
C2369      H2376   1.083       .  S
C2370      C2371   1.430   1_554  A
C2371      C2372   1.417       .  A
C2371      C2378   1.506       .  S
C2372      C2373   1.407       .  A
C2372      H2377   1.085       .  S
C2373      C2374   1.427   1_556  A
C2374      C2375   1.497       .  S
C2375      H2379   1.111       .  S
C2375      H2380   1.104       .  S
C2375      H2381   1.110       .  S
C2378      H2382   1.109       .  S
C2378      H2383   1.106       .  S
C2378      H2384   1.109       .  S
C2385      C2386   1.395       .  A
C2385      C2390   1.395       .  A
C2385      H2392   1.085       .  S
C2386      C2387   1.405       .  A
C2387      C2388   1.393       .  A
C2387      C2394   1.504       .  S
C2388      C2389   1.404       .  A
C2388      H2393   1.084       .  S
C2389      C2390   1.420       .  A
C2390      C2391   1.509       .  S
C2391      H2395   1.111       .  S
C2391      H2396   1.106       .  S
C2391      H2397   1.109       .  S
C2394      H2398   1.110       .  S
C2394      H2399   1.106       .  S
C2394      H2400   1.111       .  S
C2401      C2402   1.403       .  A
C2401      C2406   1.394       .  A
C2401      H2408   1.084       .  S
C2402      C2403   1.424       .  A
C2403      C2404   1.396       .  A
C2403      C2410   1.507       .  S
C2404      C2405   1.395       .  A
C2404      H2409   1.084       .  S
C2405      C2406   1.408       .  A
C2406      C2407   1.499       .  S
C2407      H2411   1.108       .  S
C2407      H2412   1.109       .  S
C2407      H2413   1.111       .  S
C2410      H2414   1.109       .  S
C2410      H2415   1.108       .  S
C2410      H2416   1.111       .  S
C2417      C2418   1.409       .  A
C2417      C2422   1.416       .  A
C2417      H2424   1.082       .  S
C2418      C2419   1.414       .  A
C2419      C2420   1.415       .  A
C2419      C2426   1.505       .  S
C2420      C2421   1.408       .  A
C2420      H2425   1.084       .  S
C2421      C2422   1.414       .  A
C2422      C2423   1.504       .  S
C2423      H2427   1.109       .  S
C2423      H2428   1.109       .  S
C2423      H2429   1.110       .  S
C2426      H2430   1.109       .  S
C2426      H2431   1.110       .  S
C2426      H2432   1.110       .  S
C2433      C2434   1.411       .  A
C2433      C2438   1.413       .  A
C2433      H2440   1.084       .  S
C2434      C2435   1.422       .  A
C2435      C2436   1.413       .  A
C2435      C2442   1.506       .  S
C2436      C2437   1.405       .  A
C2436      H2441   1.083       .  S
C2437      C2438   1.417       .  A
C2438      C2439   1.507       .  S
C2439      H2443   1.111       .  S
C2439      H2444   1.111       .  S
C2439      H2445   1.109       .  S
C2442      H2446   1.104       .  S
C2442      H2447   1.109       .  S
C2442      H2448   1.111       .  S
C2449      C2450   1.408       .  A
C2449      C2454   1.392       .  A
C2449      H2456   1.084       .  S
C2450      C2451   1.417       .  A
C2451      C2452   1.396       .  A
C2451      C2458   1.504       .  S
C2452      C2453   1.398       .  A
C2452      H2457   1.081       .  S
C2453      C2454   1.403       .  A
C2454      C2455   1.503       .  S
C2455      H2459   1.110       .  S
C2455      H2460   1.108       .  S
C2455      H2461   1.111       .  S
C2458      H2462   1.110       .  S
C2458      H2463   1.110       .  S
C2458      H2464   1.109       .  S
C2465      C2466   1.397       .  A
C2465      C2470   1.388       .  A
C2465      H2472   1.086       .  S
C2466      C2467   1.402       .  A
C2467      C2468   1.391       .  A
C2467      C2474   1.507       .  S
C2468      C2469   1.407       .  A
C2468      H2473   1.085       .  S
C2469      C2470   1.413       .  A
C2470      C2471   1.510       .  S
C2471      H2475   1.111       .  S
C2471      H2476   1.107       .  S
C2471      H2477   1.108       .  S
C2474      H2478   1.110       .  S
C2474      H2479   1.108       .  S
C2474      H2480   1.109       .  S
C2481      C2482   1.408       .  A
C2481      C2486   1.411       .  A
C2481      H2488   1.084       .  S
C2482      C2483   1.420       .  A
C2483      C2484   1.410       .  A
C2483      C2490   1.505       .  S
C2484      C2485   1.404       .  A
C2484      H2489   1.084       .  S
C2485      C2486   1.417       .  A
C2486      C2487   1.508       .  S
C2487      H2491   1.111       .  S
C2487      H2492   1.111       .  S
C2487      H2493   1.109       .  S
C2490      H2494   1.106       .  S
C2490      H2495   1.109       .  S
C2490      H2496   1.103       .  S
C2497      C2498   1.401       .  A
C2497      C2502   1.409       .  A
C2497      H2504   1.083       .  S
C2498      C2499   1.423       .  A
C2499      C2500   1.424       .  A
C2499      C2506   1.505       .  S
C2500      C2501   1.412       .  A
C2500      H2505   1.083       .  S
C2501      C2502   1.420       .  A
C2502      C2503   1.498       .  S
C2503      H2507   1.108       .  S
C2503      H2508   1.090       .  S
C2503      H2509   1.110       .  S
C2506      H2510   1.110       .  S
C2506      H2511   1.109       .  S
C2506      H2512   1.111       .  S
C2513      C2514   1.417       .  A
C2513      C2518   1.409       .  A
C2513      H2520   1.082       .  S
C2514      C2515   1.429       .  A
C2515      C2516   1.459       .  A
C2515      C2522   1.499       .  S
C2516      C2517   1.433       .  A
C2516      H2521   1.083       .  S
C2517      C2518   1.431       .  A
C2518      C2519   1.521       .  S
C2519      H2523   1.111       .  S
C2519      H2524   1.111       .  S
C2519      H2525   1.105       .  S
C2522      H2526   1.110       .  S
C2522      H2527   1.110       .  S
C2522      H2528   1.110       .  S
C2529      C2530   1.398       .  A
C2529      C2534   1.388       .  A
C2529      H2536   1.085       .  S
C2530      C2531   1.414       .  A
C2531      C2532   1.393       .  A
C2531      C2538   1.509       .  S
C2532      C2533   1.396       .  A
C2532      H2537   1.085       .  S
C2533      C2534   1.406       .  A
C2534      C2535   1.499       .  S
C2535      H2539   1.110       .  S
C2535      H2540   1.106       .  S
C2535      H2541   1.110       .  S
C2538      H2542   1.110       .  S
C2538      H2543   1.109       .  S
C2538      H2544   1.111       .  S
C2545      C2546   1.392       .  A
C2545      C2550   1.387       .  A
C2545      H2552   1.085       .  S
C2546      C2547   1.418       .  A
C2547      C2548   1.394       .  A
C2547      C2554   1.507       .  S
C2548      C2549   1.393       .  A
C2548      H2553   1.084       .  S
C2549      C2550   1.412       .  A
C2550      C2551   1.497       .  S
C2551      H2555   1.111       .  S
C2551      H2556   1.110       .  S
C2551      H2557   1.106       .  S
C2554      H2558   1.109       .  S
C2554      H2559   1.110       .  S
C2554      H2560   1.110       .  S
C2561      C2562   1.407       .  A
C2561      C2566   1.410       .  A
C2561      H2568   1.084       .  S
C2562      C2563   1.417       .  A
C2563      C2564   1.413       .  A
C2563      C2570   1.508       .  S
C2564      C2565   1.411       .  A
C2564      H2569   1.084       .  S
C2565      C2566   1.418       .  A
C2566      C2567   1.507       .  S
C2567      H2571   1.111       .  S
C2567      H2572   1.110       .  S
C2567      H2573   1.110       .  S
C2570      H2574   1.110       .  S
C2570      H2575   1.110       .  S
C2570      H2576   1.111       .  S
C2577      C2578   1.409       .  A
C2577      C2582   1.415       .  A
C2577      H2584   1.084       .  S
C2578      C2579   1.425       .  A
C2579      C2580   1.418       .  A
C2579      C2586   1.505       .  S
C2580      C2581   1.404       .  A
C2580      H2585   1.084       .  S
C2581      C2582   1.422       .  A
C2582      C2583   1.509       .  S
C2583      H2587   1.111       .  S
C2583      H2588   1.110       .  S
C2583      H2589   1.107       .  S
C2586      H2590   1.110       .  S
C2586      H2591   1.107       .  S
C2586      H2592   1.111       .  S
C2593      C2594   1.411       .  A
C2593      C2598   1.422       .  A
C2593      H2600   1.085       .  S
C2594      C2595   1.428       .  A
C2595      C2596   1.444       .  A
C2595      C2602   1.500       .  S
C2596      C2597   1.420       .  A
C2596      H2601   1.083       .  S
C2597      C2598   1.431       .  A
C2598      C2599   1.503       .  S
C2599      H2603   1.110       .  S
C2599      H2604   1.110       .  S
C2599      H2605   1.101       .  S
C2602      H2606   1.107       .  S
C2602      H2607   1.110       .  S
C2602      H2608   1.111       .  S
C2609      C2610   1.391       .  A
C2609      C2614   1.394       .  A
C2609      H2616   1.085       .  S
C2610      C2611   1.409       .  A
C2611      C2612   1.385       .  A
C2611      C2618   1.504       .  S
C2612      C2613   1.400       .  A
C2612      H2617   1.083       .  S
C2613      C2614   1.425       .  A
C2614      C2615   1.508       .  S
C2615      H2619   1.111       .  S
C2615      H2620   1.111       .  S
C2615      H2621   1.108       .  S
C2618      H2622   1.110       .  S
C2618      H2623   1.107       .  S
C2618      H2624   1.111       .  S
C2625      C2626   1.409       .  A
C2625      C2630   1.389       .  A
C2625      H2632   1.081       .  S
C2626      C2627   1.416       .  A
C2627      C2628   1.398       .  A
C2627      C2634   1.508       .  S
C2628      C2629   1.400       .  A
C2628      H2633   1.085       .  S
C2629      C2630   1.398       .  A
C2630      C2631   1.506       .  S
C2631      H2635   1.111       .  S
C2631      H2636   1.110       .  S
C2631      H2637   1.110       .  S
C2634      H2638   1.110       .  S
C2634      H2639   1.108       .  S
C2634      H2640   1.111       .  S
C2641      C2642   1.407       .  A
C2641      C2646   1.413       .  A
C2641      H2648   1.084       .  S
C2642      C2643   1.420       .  A
C2643      C2644   1.412       .  A
C2643      C2650   1.506       .  S
C2644      C2645   1.404       .  A
C2644      H2649   1.084       .  S
C2645      C2646   1.420       .  A
C2646      C2647   1.506   1_565  S
C2647      H2651   1.111       .  S
C2647      H2652   1.107       .  S
C2647      H2653   1.111       .  S
C2650      H2654   1.108       .  S
C2650      H2655   1.111       .  S
C2650      H2656   1.111       .  S
C2657      C2658   1.415       .  A
C2657      C2662   1.424       .  A
C2657      H2664   1.083       .  S
C2658      C2659   1.428       .  A
C2659      C2660   1.410       .  A
C2659      C2666   1.506       .  S
C2660      C2661   1.401       .  A
C2660      H2665   1.080       .  S
C2661      C2662   1.417       .  A
C2662      C2663   1.505       .  S
C2663      H2667   1.111       .  S
C2663      H2668   1.110       .  S
C2663      H2669   1.110       .  S
C2666      H2670   1.098       .  S
C2666      H2671   1.108       .  S
C2666      H2672   1.110       .  S
C2673      C2674   1.418       .  A
C2673      C2678   1.434       .  A
C2673      H2680   1.081       .  S
C2674      C2675   1.424       .  A
C2675      C2676   1.427       .  A
C2675      C2682   1.505       .  S
C2676      C2677   1.413       .  A
C2676      H2681   1.079       .  S
C2677      C2678   1.420       .  A
C2678      C2679   1.504       .  S
C2679      H2683   1.111       .  S
C2679      H2684   1.110       .  S
C2679      H2685   1.110       .  S
C2682      H2686   1.109       .  S
C2682      H2687   1.111       .  S
C2682      H2688   1.110       .  S
C2689      C2690   1.418       .  A
C2689      C2694   1.438       .  A
C2689      H2696   1.081       .  S
C2690      C2691   1.425       .  A
C2691      C2692   1.426       .  A
C2691      C2698   1.507       .  S
C2692      C2693   1.411       .  A
C2692      H2697   1.082       .  S
C2693      C2694   1.423       .  A
C2694      C2695   1.503       .  S
C2695      H2699   1.111       .  S
C2695      H2700   1.111       .  S
C2695      H2701   1.110       .  S
C2698      H2702   1.110       .  S
C2698      H2703   1.108       .  S
C2698      H2704   1.111       .  S
C2705      C2706   1.404       .  A
C2705      C2710   1.394   1_565  A
C2705      H2712   1.084   1_565  S
C2706      C2707   1.420       .  A
C2707      C2708   1.386       .  A
C2707      C2714   1.507       .  S
C2708      C2709   1.390       .  A
C2708      H2713   1.085       .  S
C2709      C2710   1.402   1_565  A
C2710      C2711   1.504       .  S
C2711      H2715   1.110       .  S
C2711      H2716   1.104       .  S
C2711      H2717   1.110       .  S
C2714      H2718   1.108       .  S
C2714      H2719   1.108       .  S
C2714      H2720   1.111       .  S
C2721      C2722   1.394       .  A
C2721      C2726   1.384       .  A
C2721      H2728   1.086       .  S
C2722      C2723   1.416       .  A
C2723      C2724   1.392       .  A
C2723      C2730   1.505       .  S
C2724      C2725   1.393       .  A
C2724      H2729   1.085       .  S
C2725      C2726   1.413       .  A
C2726      C2727   1.507       .  S
C2727      H2731   1.110       .  S
C2727      H2732   1.101       .  S
C2727      H2733   1.111       .  S
C2730      H2734   1.104       .  S
C2730      H2735   1.110       .  S
C2730      H2736   1.110       .  S
