geometry optimzed in LAMMPS
_audit_creation_date              2020-11-30 
_audit_creation_method            'lammps2cif' 
_symmetry_space_group_name_H-M    'P1' 
_symmetry_Int_Tables_number       1 
_symmetry_cell_setting            triclinic 
loop_ 
_symmetry_equiv_pos_as_xyz 
  x,y,z 
_cell_length_a                    21.63470123593522 
_cell_length_b                    24.816580089250223 
_cell_length_c                    45.70984969118941 
_cell_angle_alpha                 89.64736664791938 
_cell_angle_beta                  90.37583572283262 
_cell_angle_gamma                 90.04821893593184 
loop_ 
_atom_site_label 
_atom_site_type_symbol 
_atom_site_fract_x 
_atom_site_fract_y 
_atom_site_fract_z 
_atom_site_charge 
O1          O  0.82396855  0.38043971  0.29892523    -0.80380
O2          O  0.83744514  0.40416877  0.19698044    -0.80400
O3          O  0.83784571  0.28797786  0.26989141    -0.80410
O4          O  0.71179289  0.48309404  0.22719353    -0.80350
O5          O  0.87926633  0.34492489  0.24124171    -0.80470
O6          O  0.78161427  0.47751320  0.26398586    -0.80390
O7          O  0.74582270  0.42451750  0.17966381    -0.80380
O8          O  0.77978630  0.30598356  0.31716615    -0.80420
C9          C  0.82086230  0.34297212  0.31920948     1.09310
C10         C  0.80445624  0.42759528  0.17801749     1.09200
C11         C  0.88571211  0.30558234  0.25782098     1.09330
C12         C  0.75098032  0.50463222  0.24497601     1.09210
O13         O  0.66138752  0.44936301  0.27101201    -0.80380
O14         O  0.78197900  0.25955152  0.22698628    -0.80460
O15         O  0.68136010  0.36018781  0.30122034    -0.80390
O16         O  0.66238495  0.33787987  0.19669564    -0.80370
O17         O  0.75410206  0.31981556  0.17934294    -0.80420
O18         O  0.72900525  0.43468023  0.31675096    -0.80390
O19         O  0.61847411  0.39617107  0.24047669    -0.80350
O20         O  0.71611493  0.26361165  0.26484070    -0.80420
Co21       Co  0.74434411  0.41081288  0.27873231     1.51530
Co22       Co  0.81042326  0.33446374  0.21345040     1.51690
Co23       Co  0.75770541  0.32897354  0.27904964     1.51570
Co24       Co  0.68760034  0.40773890  0.21318488     1.51470
O25         O  0.74918272  0.37054772  0.24033634    -1.42310
C26         C  0.61303691  0.43336055  0.25837946     1.09240
C27         C  0.74314155  0.23712072  0.24468496     1.09330
C28         C  0.68732369  0.39884692  0.32044748     1.09270
C29         C  0.69582636  0.31689366  0.17746907     1.09240
O30         O  0.71137951  0.98236122  0.22289840    -0.80380
O31         O  0.83793144  0.79112581  0.26849952    -0.80400
O32         O  0.82662200  0.88393895  0.29560653    -0.80410
O33         O  0.82919521  0.89889378  0.19148295    -0.80350
O34         O  0.78202715  0.81170722  0.31588027    -0.80470
O35         O  0.73557548  0.91801290  0.17592695    -0.80390
O36         O  0.87750967  0.84245867  0.23609851    -0.80380
O37         O  0.78365796  0.97856443  0.25874626    -0.80420
C38         C  0.75218211  0.00481429  0.23959745     1.09310
C39         C  0.88474520  0.80606764  0.25470133     1.09200
C40         C  0.82234715  0.84949022  0.31732875     1.09330
C41         C  0.79353755  0.91808841  0.17217233     1.09210
O42         O  0.65698010  0.83433835  0.19957645    -0.80380
O43         O  0.68288744  0.86426551  0.29946270    -0.80460
O44         O  0.66458163  0.95332870  0.26854820    -0.80390
O45         O  0.78061956  0.75788925  0.22635163    -0.80370
O46         O  0.71767851  0.76449780  0.26502239    -0.80420
O47         O  0.61900468  0.89665125  0.24139712    -0.80390
O48         O  0.74365034  0.81353215  0.17854668    -0.80350
O49         O  0.73285738  0.93839656  0.31313842    -0.80420
Co50       Co  0.68390132  0.90571762  0.21201232     1.51530
Co51       Co  0.75839531  0.83169464  0.27740960     1.51690
Co52       Co  0.74657884  0.91328933  0.27553129     1.51570
Co53       Co  0.80545470  0.83096650  0.21038088     1.51470
O54         O  0.74837999  0.87036375  0.23801314    -1.42310
C55         C  0.68517248  0.81226464  0.17902436     1.09240
C56         C  0.69071353  0.90334969  0.31824661     1.09330
C57         C  0.61512838  0.93629292  0.25757149     1.09270
C58         C  0.74304568  0.73668103  0.24486289     1.09240
O59         O  0.21824623  0.24160940  0.22658736    -0.80380
O60         O  0.34728195  0.05267170  0.26994867    -0.80400
O61         O  0.33382462  0.14274573  0.29893054    -0.80410
O62         O  0.33501775  0.16248467  0.19466767    -0.80350
O63         O  0.29018468  0.06906708  0.31784184    -0.80470
O64         O  0.24204799  0.18073541  0.17843821    -0.80390
O65         O  0.38470453  0.10523872  0.23758746    -0.80380
O66         O  0.29125184  0.23652682  0.26177939    -0.80420
C67         C  0.25987326  0.26364481  0.24310272     1.09310
C68         C  0.39310883  0.06791406  0.25532303     1.09200
C69         C  0.33054778  0.10654274  0.31988560     1.09330
C70         C  0.30011457  0.18382086  0.17570554     1.09210
O71         O  0.16288928  0.09531305  0.19861978    -0.80380
O72         O  0.19018382  0.12259325  0.30223016    -0.80460
O73         O  0.17096642  0.21144451  0.27152627    -0.80390
O74         O  0.29069571  0.01808112  0.22753934    -0.80370
O75         O  0.22797547  0.02298033  0.26670728    -0.80420
O76         O  0.12614046  0.15488158  0.24392186    -0.80390
O77         O  0.25273030  0.07601797  0.17977730    -0.80350
O78         O  0.23862562  0.19744638  0.31625276    -0.80420
Co79       Co  0.19040202  0.16564900  0.21416881     1.51530
Co80       Co  0.26640866  0.09099539  0.27963669     1.51690
Co81       Co  0.25321636  0.17188643  0.27844077     1.51570
Co82       Co  0.31305018  0.09298401  0.21217188     1.51470
O83         O  0.25486444  0.12958335  0.24032375    -1.42310
C84         C  0.19438568  0.07216787  0.17915790     1.09240
C85         C  0.19736597  0.16158068  0.32128008     1.09330
C86         C  0.12161858  0.19388343  0.26073518     1.09270
C87         C  0.25504002  0.99592826  0.24668258     1.09240
O88         O  0.28431044  0.51684864  0.22499128    -0.80380
O89         O  0.17167391  0.71543413  0.27040881    -0.80400
O90         O  0.18270757  0.62248585  0.30011084    -0.80410
O91         O  0.16443019  0.60027518  0.19932465    -0.80350
O92         O  0.23385604  0.69496415  0.31609205    -0.80470
O93         O  0.25130028  0.57921792  0.17850220    -0.80390
O94         O  0.12699579  0.65971347  0.24243117    -0.80380
O95         O  0.21588976  0.52276033  0.26184033    -0.80420
C96         C  0.24430255  0.49554595  0.24225980     1.09310
C97         C  0.12244428  0.69849865  0.25915793     1.09200
C98         C  0.19162002  0.65978075  0.32017898     1.09330
C99         C  0.19264439  0.57958127  0.17837679     1.09210
O100        O  0.33817049  0.66129762  0.19628871    -0.80380
O101        O  0.32462759  0.63365652  0.30049826    -0.80460
O102        O  0.33803844  0.54543138  0.26934407    -0.80390
O103        O  0.22512439  0.74388131  0.22648193    -0.80370
O104        O  0.29396452  0.73519497  0.26355323    -0.80420
O105        O  0.38160763  0.59914544  0.23926766    -0.80390
O106        O  0.24764840  0.68217375  0.17850494    -0.80350
O107        O  0.27340505  0.55989065  0.31489525    -0.80420
Co108      Co  0.31147719  0.59171549  0.21195899     1.51530
Co109      Co  0.25027660  0.67083870  0.27839184     1.51690
Co110      Co  0.25783334  0.58729088  0.27766388     1.51570
Co111      Co  0.19353034  0.66933339  0.21377067     1.51470
O112        O  0.25410953  0.63029461  0.23986019    -1.42310
C113        C  0.30592946  0.68238171  0.17625964     1.09240
C114        C  0.31523358  0.59514846  0.31987779     1.09330
C115        C  0.38662681  0.56080940  0.25679747     1.09270
C116        C  0.26685243  0.76370681  0.24374016     1.09240
O117        O  0.47873063  0.19381389  0.07043559    -0.80380
O118        O  0.50255427  0.29260171  0.92739681    -0.80400
O119        O  0.46597237  0.35745451  0.01050388    -0.80410
O120        O  0.37037037  0.22193398  0.99239167    -0.80350
O121        O  0.53016058  0.35929757  0.97195539    -0.80470
O122        O  0.41307027  0.17175552  0.02476745    -0.80390
O123        O  0.41345493  0.27793400  0.94780492    -0.80380
O124        O  0.43159266  0.26534267  0.05065850    -0.80420
C125        C  0.43809931  0.23112715  0.07237296     1.09310
C126        C  0.44450897  0.29748694  0.92710406     1.09200
C127        C  0.49075968  0.38246374  0.98891440     1.09330
C128        C  0.36472427  0.18687171  0.01170945     1.09210
O129        O  0.53244093  0.14312247  0.01804215    -0.80380
O130        O  0.62828853  0.27810935  0.98965797    -0.80460
O131        O  0.53219436  0.32068720  0.06433494    -0.80390
O132        O  0.49491776  0.19057380  0.93097881    -0.80370
O133        O  0.58494543  0.21079919  0.94969369    -0.80420
O134        O  0.57588937  0.24426509  0.04908106    -0.80390
O135        O  0.46365430  0.13501590  0.98084306    -0.80350
O136        O  0.58598917  0.33597227  0.01655327    -0.80420
Co137      Co  0.49544951  0.21164194  0.03081310     1.51530
Co138      Co  0.55910562  0.28277962  0.96202470     1.51690
Co139      Co  0.50802431  0.29416847  0.02744250     1.51570
Co140      Co  0.43835864  0.20881955  0.96504632     1.51470
O141        O  0.49976316  0.24828156  0.99076546    -1.42310
C142        C  0.50361755  0.11498313  0.99886099     1.09240
C143        C  0.63331485  0.32068375  0.00357913     1.09330
C144        C  0.57392156  0.28428145  0.06762530     1.09270
C145        C  0.55355493  0.18931903  0.92958876     1.09240
O146        O  0.47601235  0.67780183  0.06240332    -0.80380
O147        O  0.50707365  0.80329143  0.92740190    -0.80400
O148        O  0.46649187  0.85444429  0.01191999    -0.80410
O149        O  0.36934274  0.72223666  0.98653958    -0.80350
O150        O  0.53594350  0.86137402  0.97573065    -0.80470
O151        O  0.41258640  0.66698855  0.01635122    -0.80390
O152        O  0.41457108  0.78519418  0.94397867    -0.80380
O153        O  0.42888433  0.75356099  0.04808877    -0.80420
C154        C  0.43671454  0.71478027  0.06757859     1.09310
C155        C  0.44882448  0.80676392  0.92508042     1.09200
C156        C  0.49611973  0.88273181  0.99304371     1.09330
C157        C  0.36415965  0.68449383  0.00446243     1.09210
O158        O  0.53220799  0.63975662  0.00915523    -0.80380
O159        O  0.63052266  0.77568586  0.99019825    -0.80460
O160        O  0.52205913  0.81026570  0.06404098    -0.80390
O161        O  0.49804805  0.69997951  0.92592033    -0.80370
O162        O  0.58727875  0.71746292  0.94633691    -0.80420
O163        O  0.57033004  0.73658845  0.04858756    -0.80390
O164        O  0.46327714  0.63767669  0.97180332    -0.80350
O165        O  0.58679426  0.82885618  0.01989820    -0.80420
Co166      Co  0.49392962  0.70535449  0.02531740     1.51530
Co167      Co  0.56229361  0.78690587  0.96200821     1.51690
Co168      Co  0.50550134  0.78765606  0.02644063     1.51570
Co169      Co  0.43908114  0.71386377  0.95932400     1.51470
O170        O  0.49995986  0.74882938  0.98763069    -1.42310
C171        C  0.50242459  0.61448773  0.98906402     1.09240
C172        C  0.63551614  0.81315262  0.00795644     1.09330
C173        C  0.56176239  0.77307120  0.06894625     1.09270
C174        C  0.55664003  0.69689470  0.92579999     1.09240
O175        O  0.97367081  0.93581674  0.06636895    -0.80380
O176        O  0.00487846  0.05641813  0.92955399    -0.80400
O177        O  0.96883311  0.10702577  0.01416196    -0.80410
O178        O  0.87043287  0.97878143  0.99131164    -0.80350
O179        O  0.03928193  0.11293005  0.97819342    -0.80470
O180        O  0.91050058  0.92114828  0.01988698    -0.80390
O181        O  0.91487662  0.03884480  0.94868439    -0.80380
O182        O  0.92608485  0.00950513  0.04965250    -0.80420
C183        C  0.92959141  0.96980916  0.06875166     1.09310
C184        C  0.94644003  0.06091746  0.92886863     1.09200
C185        C  0.00008294  0.13459374  0.99568213     1.09330
C186        C  0.86256378  0.93980365  0.00797579     1.09210
O187        O  0.03178375  0.89587328  0.01413263    -0.80380
O188        O  0.13129851  0.02636860  0.99135100    -0.80460
O189        O  0.02149850  0.06440753  0.06785717    -0.80390
O190        O  0.99316296  0.95240648  0.92926938    -0.80370
O191        O  0.08679583  0.96903762  0.94564655    -0.80420
O192        O  0.06948193  0.99070700  0.05228495    -0.80390
O193        O  0.96298192  0.89133341  0.97682526    -0.80350
O194        O  0.08889911  0.07830092  0.02263358    -0.80420
Co195      Co  0.99271873  0.96082494  0.02900898     1.51530
Co196      Co  0.06270594  0.03850606  0.96343230     1.51690
Co197      Co  0.00584740  0.04063153  0.02950044     1.51570
Co198      Co  0.93830765  0.96747175  0.96366182     1.51470
O199        O  0.00115274  0.00155964  0.99054250    -1.42310
C200        C  0.00241257  0.86934278  0.99458798     1.09240
C201        C  0.13714407  0.06219406  0.01023384     1.09330
C202        C  0.06123042  0.02727981  0.07255006     1.09270
C203        C  0.05125966  0.94853832  0.92671879     1.09240
O204        O  0.01871265  0.56774551  0.06549682    -0.80380
O205        O  0.01659502  0.42134713  0.93745116    -0.80400
O206        O  0.03352089  0.39560122  0.02179438    -0.80410
O207        O  0.12989888  0.52749904  0.98549184    -0.80350
O208        O  0.96957790  0.38066950  0.98470376    -0.80470
O209        O  0.09158891  0.57326028  0.02090214    -0.80390
O210        O  0.08280720  0.48861482  0.93571265    -0.80380
O211        O  0.06627697  0.49271753  0.05309510    -0.80420
C212        C  0.05918887  0.53214438  0.07156815     1.09310
C213        C  0.06362566  0.44349044  0.92714763     1.09200
C214        C  0.00754058  0.36395566  0.00400396     1.09330
C215        C  0.13828527  0.55881915  0.00634048     1.09210
O216        O  0.96698107  0.60832329  0.01321253    -0.80380
O217        O  0.87758325  0.47249015  0.98238752    -0.80460
O218        O  0.96673853  0.44176438  0.06802338    -0.80390
O219        O  0.99314216  0.57137479  0.93409307    -0.80370
O220        O  0.92810709  0.50348420  0.93375898    -0.80420
O221        O  0.92260795  0.51424355  0.04849236    -0.80390
O222        O  0.04153816  0.61725135  0.98057280    -0.80350
O223        O  0.90625618  0.42541103  0.01932905    -0.80420
Co224      Co  0.00457105  0.54051078  0.02782989     1.51530
Co225      Co  0.95121636  0.44899900  0.96226961     1.51690
Co226      Co  0.98978949  0.46289138  0.02983643     1.51570
Co227      Co  0.05773152  0.54639258  0.96178207     1.51470
O228        O  0.00258896  0.49882705  0.98902214    -1.42310
C229        C  0.00004206  0.63752100  0.99657061     1.09240
C230        C  0.86424792  0.43910418  0.00139750     1.09330
C231        C  0.92649554  0.47884691  0.06989432     1.09270
C232        C  0.94588268  0.54833381  0.92412284     1.09240
O233        O  0.81889664  0.13761941  0.80128013    -0.80380
O234        O  0.83593094  0.16081426  0.69910986    -0.80400
O235        O  0.83590558  0.04743889  0.77273825    -0.80410
O236        O  0.71322049  0.23789663  0.72388301    -0.80350
O237        O  0.87897945  0.10307946  0.74374406    -0.80470
O238        O  0.78186374  0.23398860  0.76130609    -0.80390
O239        O  0.74723187  0.17468077  0.67762612    -0.80380
O240        O  0.77132884  0.06345036  0.81739099    -0.80420
C241        C  0.81088404  0.10080085  0.82180800     1.09310
C242        C  0.80573034  0.17674539  0.67720480     1.09200
C243        C  0.88446828  0.06453431  0.76106978     1.09330
C244        C  0.75264103  0.26026239  0.74129334     1.09210
O245        O  0.66163390  0.20730987  0.76811483    -0.80380
O246        O  0.78877854  0.01523210  0.72812926    -0.80460
O247        O  0.67667428  0.11987245  0.80087496    -0.80390
O248        O  0.66575768  0.09054174  0.69578766    -0.80370
O249        O  0.75880787  0.07181059  0.68019612    -0.80420
O250        O  0.72430312  0.19551257  0.81410254    -0.80390
O251        O  0.61844656  0.15264217  0.73832697    -0.80350
O252        O  0.71770985  0.01890959  0.76413352    -0.80420
Co253      Co  0.74265277  0.16853482  0.77745862     1.51530
Co254      Co  0.81301211  0.09039459  0.71481276     1.51690
Co255      Co  0.75406788  0.08661047  0.77931071     1.51570
Co256      Co  0.68891049  0.16157623  0.71130684     1.51470
O257        O  0.74877633  0.12574222  0.74006941    -1.42310
C258        C  0.61316262  0.18983697  0.75633447     1.09240
C259        C  0.74827297  0.99282344  0.74469779     1.09330
C260        C  0.68384894  0.15954042  0.81969955     1.09270
C261        C  0.70068803  0.06703156  0.67779307     1.09240
O262        O  0.67707521  0.61779662  0.79757805    -0.80380
O263        O  0.66052437  0.59562932  0.69924841    -0.80400
O264        O  0.66512029  0.71355519  0.76972517    -0.80410
O265        O  0.78803058  0.51667059  0.72533366    -0.80350
O266        O  0.62137553  0.65685455  0.74220651    -0.80470
O267        O  0.71568608  0.52130189  0.75999540    -0.80390
O268        O  0.74934936  0.57570826  0.67924304    -0.80380
O269        O  0.72466383  0.69092540  0.81515456    -0.80420
C270        C  0.68373501  0.65403186  0.81824773     1.09310
C271        C  0.69088199  0.57220655  0.67969927     1.09200
C272        C  0.61611396  0.69644719  0.75847660     1.09330
C273        C  0.74756911  0.49401725  0.74188980     1.09210
O274        O  0.83851770  0.54946705  0.76886533    -0.80380
O275        O  0.71896468  0.74063003  0.72589774    -0.80460
O276        O  0.81800914  0.63382598  0.80055583    -0.80390
O277        O  0.83330578  0.66189906  0.69313727    -0.80370
O278        O  0.73950763  0.67898189  0.67758864    -0.80420
O279        O  0.76934184  0.55816649  0.81328516    -0.80390
O280        O  0.88029552  0.60338266  0.73808525    -0.80350
O281        O  0.78686115  0.73326348  0.76356579    -0.80420
Co282      Co  0.75494172  0.58643526  0.77626849     1.51530
Co283      Co  0.68786305  0.66588026  0.71328270     1.51690
Co284      Co  0.74381314  0.66888919  0.77763117     1.51570
Co285      Co  0.81022142  0.59229705  0.71119956     1.51470
O286        O  0.75088811  0.62953580  0.73887894    -1.42310
C287        C  0.88674060  0.56654468  0.75653696     1.09240
C288        C  0.75932424  0.76116181  0.74373323     1.09330
C289        C  0.80833329  0.59486196  0.81957561     1.09270
C290        C  0.79729292  0.68199917  0.67414669     1.09240
O291        O  0.17826293  0.36436697  0.80153842    -0.80380
O292        O  0.15981106  0.34781475  0.69339822    -0.80400
O293        O  0.16027600  0.45311206  0.77179204    -0.80410
O294        O  0.28002456  0.26240234  0.72638385    -0.80350
O295        O  0.11678794  0.40301091  0.73961139    -0.80470
O296        O  0.21203519  0.26694738  0.76365636    -0.80390
O297        O  0.25329808  0.32732777  0.67866657    -0.80380
O298        O  0.22859590  0.43772816  0.81647791    -0.80420
C299        C  0.18927055  0.40089176  0.82164369     1.09310
C300        C  0.19517069  0.32645004  0.67494473     1.09200
C301        C  0.11190914  0.43851544  0.75861597     1.09330
C302        C  0.24128291  0.24018253  0.74433715     1.09210
O303        O  0.33362824  0.29092678  0.77018318    -0.80380
O304        O  0.21228040  0.48813608  0.72884022    -0.80460
O305        O  0.31907703  0.37886021  0.80102761    -0.80390
O306        O  0.33387602  0.41075859  0.70134688    -0.80370
O307        O  0.24653985  0.43254311  0.68055821    -0.80420
O308        O  0.26927536  0.30476095  0.81530611    -0.80390
O309        O  0.37571088  0.34819817  0.74241471    -0.80350
O310        O  0.28272643  0.47943155  0.76501761    -0.80420
Co311      Co  0.25267365  0.33174845  0.77842005     1.51530
Co312      Co  0.18658576  0.41487804  0.71290946     1.51690
Co313      Co  0.24237665  0.41326171  0.77901770     1.51570
Co314      Co  0.30768368  0.33908748  0.71417010     1.51470
O315        O  0.24548228  0.37388900  0.74030745    -1.42310
C316        C  0.38215530  0.30906428  0.75904954     1.09240
C317        C  0.25210026  0.50821011  0.74674727     1.09330
C318        C  0.31044556  0.34007769  0.82039220     1.09270
C319        C  0.30496175  0.43439452  0.68111166     1.09240
O320        O  0.31525911  0.88115262  0.79941956    -0.80380
O321        O  0.33364380  0.90636157  0.69898070    -0.80400
O322        O  0.32798704  0.78785387  0.77074733    -0.80410
O323        O  0.20629563  0.98420685  0.72549317    -0.80350
O324        O  0.37273071  0.84384787  0.74266225    -0.80470
O325        O  0.27532790  0.98043625  0.76231510    -0.80390
O326        O  0.24393001  0.92640881  0.67951871    -0.80380
O327        O  0.26736608  0.80755915  0.81669156    -0.80420
C328        C  0.31021244  0.84291636  0.81932505     1.09310
C329        C  0.30245585  0.92647066  0.67840282     1.09200
C330        C  0.37715690  0.80432787  0.75941692     1.09330
C331        C  0.24513434  0.00699412  0.74262832     1.09210
O332        O  0.15591553  0.95164649  0.76920790    -0.80380
O333        O  0.27642191  0.76153043  0.72590294    -0.80460
O334        O  0.17164308  0.86408409  0.80019810    -0.80390
O335        O  0.15719072  0.84153921  0.69359335    -0.80370
O336        O  0.25045037  0.82389569  0.67807505    -0.80420
O337        O  0.22043881  0.93801690  0.81578592    -0.80390
O338        O  0.11219519  0.89932252  0.73819418    -0.80350
O339        O  0.20764094  0.76531152  0.76272409    -0.80420
Co340      Co  0.23763577  0.91325172  0.77787302     1.51530
Co341      Co  0.30538978  0.83624592  0.71361109     1.51690
Co342      Co  0.24814612  0.83068720  0.77845915     1.51570
Co343      Co  0.18272731  0.90999855  0.71161095     1.51470
O344        O  0.24261000  0.87208362  0.73971197    -1.42310
C345        C  0.10747647  0.93578151  0.75667331     1.09240
C346        C  0.23583375  0.73914354  0.74253909     1.09330
C347        C  0.17759479  0.90320864  0.81932984     1.09270
C348        C  0.19229630  0.82271423  0.67436115     1.09240
O349        O  0.53116236  0.92059642  0.44038188    -0.80380
O350        O  0.53048193  0.04571506  0.57166934    -0.80400
O351        O  0.62823322  0.02713366  0.48264128    -0.80410
O352        O  0.53113434  0.88478547  0.51831049    -0.80350
O353        O  0.59945521  0.05805227  0.52460892    -0.80470
O354        O  0.46420015  0.87648963  0.48240853    -0.80390
O355        O  0.57392976  0.97369979  0.55297410    -0.80380
O356        O  0.56692671  0.00138145  0.43224666    -0.80420
C357        C  0.56492282  0.95225000  0.42602547     1.09310
C358        C  0.56918850  0.00761999  0.57452180     1.09200
C359        C  0.64138141  0.05233564  0.50562301     1.09330
C360        C  0.49992731  0.85564281  0.50119417     1.09210
O361        O  0.37546491  0.96269153  0.47872673    -0.80380
O362        O  0.47621334  0.10036407  0.52438345    -0.80460
O363        O  0.47421550  0.07732509  0.44578230    -0.80390
O364        O  0.47045551  0.92774590  0.56722477    -0.80370
O365        O  0.42846186  0.00344116  0.55155734    -0.80420
O366        O  0.43817016  0.99974350  0.43045994    -0.80390
O367        O  0.40663902  0.92393314  0.51898702    -0.80350
O368        O  0.54276347  0.11264855  0.48927519    -0.80420
Co369      Co  0.45574111  0.94497383  0.46104409     1.51530
Co370      Co  0.51129691  0.02804650  0.53226874     1.51690
Co371      Co  0.54941304  0.04911713  0.46502061     1.51570
Co372      Co  0.49312071  0.95339384  0.52986486     1.51470
O373        O  0.50248924  0.99461511  0.49089080    -1.42310
C374        C  0.36340364  0.93587990  0.50135041     1.09240
C375        C  0.50866466  0.13129402  0.50864383     1.09330
C376        C  0.44316710  0.05007959  0.42791751     1.09270
C377        C  0.42914540  0.96373336  0.57036391     1.09240
O378        O  0.47611178  0.56576909  0.44035437    -0.80380
O379        O  0.48322989  0.43495824  0.57054643    -0.80400
O380        O  0.37749141  0.45466974  0.48304274    -0.80410
O381        O  0.46164931  0.59575977  0.51983478    -0.80350
O382        O  0.41096338  0.42244059  0.52437916    -0.80470
O383        O  0.52929025  0.61357589  0.48496248    -0.80390
O384        O  0.43114876  0.50449133  0.55445842    -0.80380
O385        O  0.43282902  0.48654451  0.43290382    -0.80420
C386        C  0.43971403  0.53571571  0.42649431     1.09310
C387        C  0.44123544  0.46898686  0.57504571     1.09200
C388        C  0.36694949  0.43007553  0.50635264     1.09330
C389        C  0.48890086  0.62827429  0.50319084     1.09210
O390        O  0.62694344  0.53052277  0.48407630    -0.80380
O391        O  0.54114281  0.39275685  0.52349057    -0.80460
O392        O  0.52986722  0.41208789  0.44301687    -0.80390
O393        O  0.52727068  0.55896653  0.56851455    -0.80370
O394        O  0.57647451  0.48739734  0.55243906    -0.80420
O395        O  0.57272429  0.49127572  0.43548827    -0.80390
O396        O  0.59060252  0.57095348  0.52185447    -0.80350
O397        O  0.47144812  0.37073555  0.49050813    -0.80420
Co398      Co  0.54835558  0.54532879  0.46398558     1.51530
Co399      Co  0.49691455  0.45826644  0.53211626     1.51690
Co400      Co  0.45639905  0.43619813  0.46502128     1.51570
Co401      Co  0.50810830  0.53242297  0.53115560     1.51470
O402        O  0.50140015  0.49295041  0.49144256    -1.42310
C403        C  0.63588057  0.56008384  0.50565966     1.09240
C404        C  0.50969040  0.35795952  0.51046196     1.09330
C405        C  0.56506184  0.44265182  0.42864124     1.09270
C406        C  0.56888885  0.52347154  0.57263272     1.09240
O407        O  0.00658625  0.31248668  0.43100653    -0.80380
O408        O  0.97488994  0.17716457  0.56264194    -0.80400
O409        O  0.86975618  0.22413100  0.48633129    -0.80410
O410        O  0.96134667  0.35614864  0.51810197    -0.80350
O411        O  0.91175035  0.16825881  0.51614076    -0.80470
O412        O  0.02863521  0.36708222  0.48103821    -0.80390
O413        O  0.92658336  0.25281084  0.54961865    -0.80380
O414        O  0.91372807  0.28962678  0.44528338    -0.80420
C415        C  0.94850792  0.31395835  0.42764366     1.09310
C416        C  0.93373925  0.21269916  0.56804510     1.09200
C417        C  0.86421586  0.18478560  0.50304005     1.09330
C418        C  0.98760315  0.38570354  0.49873023     1.09210
O419        O  0.12484139  0.28114160  0.49491741    -0.80380
O420        O  0.03391620  0.14472490  0.50902592    -0.80460
O421        O  0.00130449  0.20839068  0.42674760    -0.80390
O422        O  0.02318301  0.30535576  0.56965661    -0.80370
O423        O  0.07062076  0.23579100  0.54855822    -0.80420
O424        O  0.08822331  0.22748874  0.44872200    -0.80390
O425        O  0.08222577  0.33447288  0.52432110    -0.80350
O426        O  0.96621559  0.14176698  0.47146867    -0.80420
Co427      Co  0.05959507  0.29466465  0.46589961     1.51530
Co428      Co  0.99265606  0.20726145  0.52613567     1.51690
Co429      Co  0.94037886  0.21842036  0.45983981     1.51570
Co430      Co  0.00323672  0.28930466  0.53029199     1.51470
O431        O  0.99745709  0.25413115  0.48980007    -1.42310
C432        C  0.13072824  0.31919251  0.51216663     1.09240
C433        C  0.00559598  0.11904592  0.48883439     1.09330
C434        C  0.05997910  0.20810103  0.42712551     1.09270
C435        C  0.06602126  0.26960095  0.57035585     1.09240
O436        O  0.00169829  0.80502172  0.42791245    -0.80380
O437        O  0.96900256  0.69183253  0.56661124    -0.80400
O438        O  0.86407941  0.72670691  0.48790507    -0.80410
O439        O  0.96662674  0.86049406  0.51198552    -0.80350
O440        O  0.90625901  0.67522186  0.51993879    -0.80470
O441        O  0.03359633  0.86440947  0.47459789    -0.80390
O442        O  0.92582827  0.76638466  0.54842883    -0.80380
O443        O  0.90870340  0.78663495  0.44397303    -0.80420
C444        C  0.94353181  0.80972816  0.42575637     1.09310
C445        C  0.93011608  0.73034533  0.56932973     1.09200
C446        C  0.85849806  0.69028548  0.50657912     1.09330
C447        C  0.99475213  0.88695587  0.49198618     1.09210
O448        O  0.12652507  0.77663257  0.48962182    -0.80380
O449        O  0.02303648  0.64387762  0.51325520    -0.80460
O450        O  0.99090683  0.70163706  0.42657815    -0.80390
O451        O  0.02861853  0.81513460  0.56446593    -0.80370
O452        O  0.06959777  0.73962006  0.54684086    -0.80420
O453        O  0.08087033  0.71790831  0.44632164    -0.80390
O454        O  0.08581051  0.83297302  0.51829429    -0.80350
O455        O  0.95679386  0.64060793  0.47488591    -0.80420
Co456      Co  0.05773948  0.78833911  0.46185993     1.51530
Co457      Co  0.98854758  0.71228364  0.52744689     1.51690
Co458      Co  0.93334626  0.71638762  0.46067571     1.51570
Co459      Co  0.00449175  0.79377427  0.52673446     1.51470
O460        O  0.99499636  0.75263732  0.48841121    -1.42310
C461        C  0.13356428  0.81531383  0.50645273     1.09560
C462        C  0.99394977  0.61772196  0.49332607     1.09330
C463        C  0.04943040  0.69881105  0.42552460     1.09270
C464        C  0.06834331  0.77697838  0.56681803     1.09240
C465        C  0.98467177  0.53246105  0.52143066    -0.12510
C466        C  0.99440054  0.55802961  0.49433009     0.04500
C467        C  0.99368654  0.52663999  0.46867059    -0.07800
C468        C  0.98532690  0.47081320  0.47079259    -0.08540
C469        C  0.97767869  0.44482373  0.49788345    -0.03090
C470        C  0.97520038  0.47649229  0.52353240     0.03730
N471        N  0.96438172  0.45294302  0.55181791     0.66230
H472        H  0.98204077  0.55655398  0.54108388     0.15130
H473        H  0.98840577  0.44691697  0.45107986     0.14840
N474        N  0.00575466  0.54998483  0.44052377     0.73940
O475        O  0.99458786  0.46940692  0.57374038    -0.39510
O476        O  0.91646337  0.42496963  0.55599074    -0.39460
O477        O  0.05012646  0.58250111  0.43763266    -0.40160
O478        O  0.98090942  0.53025374  0.41792023    -0.40230
C479        C  0.99325252  0.03338221  0.51543162    -0.12510
C480        C  0.00818342  0.05964044  0.48916235     0.04500
C481        C  0.01439107  0.02916282  0.46341516    -0.07800
C482        C  0.00513677  0.97316032  0.46454855    -0.08540
C483        C  0.99040288  0.94661357  0.49089641    -0.03090
C484        C  0.98366215  0.97760409  0.51658447     0.03730
N485        N  0.96857863  0.95336059  0.54417046     0.66230
H486        H  0.98656485  0.05677166  0.53512269     0.15130
H487        H  0.01214462  0.94978340  0.44489877     0.14840
N488        N  0.03426202  0.05384156  0.43660267     0.73940
O489        O  0.00230884  0.96234804  0.56624917    -0.39510
O490        O  0.91566840  0.93302315  0.54782114    -0.39460
O491        O  0.07712542  0.08831169  0.43713090    -0.40160
O492        O  0.01682055  0.03508285  0.41229443    -0.40230
C493        C  0.24416054  0.32043554  0.50590209    -0.12510
C494        C  0.19105265  0.34817414  0.51472938     0.04500
C495        C  0.19636122  0.40406241  0.52097872    -0.07800
C496        C  0.25456274  0.42961808  0.51920542    -0.08540
C497        C  0.30703831  0.40158888  0.50987013    -0.03090
C498        C  0.30075790  0.34683135  0.50190634     0.03730
N499        N  0.34844446  0.31919770  0.48631168     0.66230
H500        H  0.24045961  0.27851558  0.49960696     0.15130
H501        H  0.25832917  0.47217403  0.52410288     0.14840
N502        N  0.14301934  0.43669386  0.52628733     0.73940
O503        O  0.35709050  0.26953231  0.49086307    -0.39510
O504        O  0.36851995  0.33971908  0.46289486    -0.39460
O505        O  0.11224245  0.43001405  0.54935228    -0.40160
O506        O  0.13383946  0.47843131  0.51094194    -0.40230
C507        C  0.80537822  0.60234417  0.51291179    -0.12510
C508        C  0.80035519  0.65860254  0.50932478     0.04500
C509        C  0.74110406  0.68160302  0.50576371    -0.07800
C510        C  0.68893529  0.64779232  0.50572503    -0.08540
C511        C  0.69400243  0.59141878  0.50835883    -0.03090
C512        C  0.75342966  0.56791122  0.51185488     0.03730
N513        N  0.76279347  0.51024734  0.51427787     0.66230
H514        H  0.85099874  0.58483777  0.51526199     0.15130
H515        H  0.64357175  0.66572791  0.50301381     0.14840
N516        N  0.73279291  0.73880887  0.50231923     0.73940
O517        O  0.81655393  0.49141820  0.51786277    -0.39510
O518        O  0.71819925  0.47754956  0.51307571    -0.39460
O519        O  0.68931809  0.75687957  0.48652181    -0.40160
O520        O  0.76446626  0.77132574  0.51737192    -0.40230
C521        C  0.30433293  0.85125587  0.50160274    -0.12510
C522        C  0.30317889  0.90766053  0.50433314     0.04500
C523        C  0.24618578  0.93354022  0.51031470    -0.07800
C524        C  0.19214156  0.90153900  0.51240826    -0.08540
C525        C  0.19326309  0.84520945  0.50847770    -0.03090
C526        C  0.25053055  0.81985822  0.50363014     0.03730
N527        N  0.25512336  0.76235152  0.50109164     0.66230
H528        H  0.34797683  0.83122759  0.49787004     0.15130
H529        H  0.14809740  0.92100274  0.51609071     0.14840
N530        N  0.24166287  0.99113177  0.51461251     0.73940
O531        O  0.29138636  0.74192631  0.48272571    -0.39510
O532        O  0.22772676  0.73191102  0.51905665    -0.39460
O533        O  0.28707010  0.02196826  0.51013615    -0.40160
O534        O  0.19147253  0.01177154  0.52295080    -0.40230
C535        C  0.45769062  0.76956928  0.48393448    -0.12510
C536        C  0.49684286  0.79663512  0.50394079     0.04500
C537        C  0.52774382  0.76678614  0.52595473    -0.07800
C538        C  0.51965094  0.71100354  0.52694673    -0.08540
C539        C  0.48075728  0.68513978  0.50681062    -0.03090
C540        C  0.44875428  0.71427577  0.48530620     0.03730
N541        N  0.40918235  0.68807188  0.46417573     0.66230
H542        H  0.43320809  0.79144672  0.46689555     0.15130
H543        H  0.54585713  0.68733843  0.54273153     0.14840
N544        N  0.56849763  0.79157373  0.54673648     0.73940
O545        O  0.38002701  0.64571398  0.47091353    -0.39510
O546        O  0.39921754  0.70953680  0.43947402    -0.39460
O547        O  0.54666623  0.82218068  0.56603796    -0.40160
O548        O  0.62296873  0.77409472  0.54973826    -0.40230
C549        C  0.46962431  0.21561919  0.53034849    -0.12510
C550        C  0.51339939  0.18958284  0.51318850     0.04500
C551        C  0.56218282  0.22019194  0.50025028    -0.07800
C552        C  0.56375704  0.27539081  0.50372159    -0.08540
C553        C  0.51649210  0.30155297  0.51797458    -0.03090
C554        C  0.46999523  0.27181159  0.53274342     0.03730
N555        N  0.42311658  0.29750022  0.54991930     0.66230
H556        H  0.43386377  0.19231101  0.54106116     0.15130
H557        H  0.59918678  0.29855855  0.49263791     0.14840
N558        N  0.60857105  0.19733699  0.48181772     0.73940
O559        O  0.37290484  0.27348873  0.55526032    -0.39510
O560        O  0.43594121  0.33932501  0.56413414    -0.39460
O561        O  0.59453171  0.18570906  0.45574658    -0.40160
O562        O  0.66471296  0.20508378  0.48815383    -0.40230
C563        C  0.73192609  0.09334706  0.48059715    -0.12510
C564        C  0.70018116  0.08479660  0.50703501     0.04500
C565        C  0.72184948  0.11301616  0.53220991    -0.07800
C566        C  0.77663508  0.14383082  0.53050111    -0.08540
C567        C  0.80634914  0.15292552  0.50381866    -0.03090
C568        C  0.78270672  0.12818398  0.47842583     0.03730
N569        N  0.80917325  0.13803260  0.45016115     0.66230
H570        H  0.71451942  0.07592479  0.46069376     0.15130
H571        H  0.79436412  0.16347539  0.54991010     0.14840
N572        N  0.68784785  0.11459187  0.55903230     0.73940
O573        O  0.81908725  0.09902374  0.43323459    -0.39510
O574        O  0.80981322  0.18529550  0.43980604    -0.39460
O575        O  0.71734330  0.11410820  0.58292265    -0.40160
O576        O  0.63399405  0.13406442  0.55886150    -0.40230
C577        C  0.38095299  0.90392266  0.60634299    -0.12510
C578        C  0.38372979  0.95605881  0.59425921     0.04500
C579        C  0.35444571  0.99878857  0.60920028    -0.07800
C580        C  0.32938748  0.98883736  0.63717857    -0.08540
C581        C  0.33277895  0.93759778  0.65024346    -0.03090
C582        C  0.35805922  0.89453020  0.63427352     0.03730
N583        N  0.36175610  0.84086464  0.64604128     0.66230
H584        H  0.40144050  0.87024623  0.59493847     0.15130
H585        H  0.30762719  0.02117171  0.64891454     0.14840
N586        N  0.35051734  0.05203041  0.59683816     0.73940
O587        O  0.34374183  0.80160653  0.63074135    -0.39510
O588        O  0.39462281  0.83170235  0.66843388    -0.39460
O589        O  0.33217570  0.05831608  0.57077948    -0.40160
O590        O  0.35361335  0.09266780  0.61326988    -0.40230
C591        C  0.14118991  0.75601934  0.64103640    -0.12510
C592        C  0.16653198  0.80742745  0.64547588     0.04500
C593        C  0.16705569  0.84454679  0.62190193    -0.07800
C594        C  0.14199604  0.83001735  0.59490603    -0.08540
C595        C  0.11396667  0.77991060  0.59080652    -0.03090
C596        C  0.11606981  0.74118820  0.61367353     0.03730
N597        N  0.08969105  0.68836660  0.61017983     0.66230
H598        H  0.13901432  0.72786042  0.65913733     0.15130
H599        H  0.13891870  0.86030361  0.57773614     0.14840
N600        N  0.18491853  0.89952019  0.62579002     0.73940
O601        O  0.06669426  0.66396696  0.63185764    -0.39510
O602        O  0.09750315  0.66282496  0.58670859    -0.39460
O603        O  0.22015476  0.92133456  0.60726138    -0.40160
O604        O  0.15142183  0.92928188  0.64138718    -0.40230
C605        C  0.39865840  0.42968572  0.65214404    -0.12510
C606        C  0.34112979  0.45447410  0.65580805     0.04500
C607        C  0.31848822  0.48944414  0.63337190    -0.07800
C608        C  0.35272284  0.49497328  0.60726266    -0.08540
C609        C  0.40780385  0.46628666  0.60311916    -0.03090
C610        C  0.43125461  0.43402575  0.62636369     0.03730
N611        N  0.48655320  0.40249234  0.62398616     0.66230
H612        H  0.41758343  0.40311365  0.66884662     0.15130
H613        H  0.33558808  0.52075230  0.58981670     0.14840
N614        N  0.26149146  0.51887191  0.63621047     0.73940
O615        O  0.53866179  0.42507365  0.62566974    -0.39510
O616        O  0.48344654  0.35184797  0.62628578    -0.39460
O617        O  0.24310296  0.53412222  0.66091964    -0.40160
O618        O  0.23251122  0.53471832  0.61368478    -0.40230
C619        C  0.14578916  0.32152793  0.59541582    -0.12510
C620        C  0.11281286  0.27329148  0.59403113     0.04500
C621        C  0.11333758  0.23834124  0.61871891    -0.07800
C622        C  0.14093626  0.25611237  0.64512496    -0.08540
C623        C  0.16943598  0.30678564  0.64687036    -0.03090
C624        C  0.17351821  0.33874097  0.62134334     0.03730
N625        N  0.19985676  0.39145847  0.62190114     0.66230
H626        H  0.14589592  0.34829534  0.57672594     0.15130
H627        H  0.14003163  0.23059166  0.66442201     0.14840
N628        N  0.08651430  0.18536894  0.61744182     0.73940
O629        O  0.24069386  0.40358169  0.60339034    -0.39510
O630        O  0.16986959  0.42872079  0.63395261    -0.39460
O631        O  0.08689648  0.15944406  0.59378153    -0.40160
O632        O  0.07213320  0.16088847  0.64072758    -0.40230
C633        C  0.27040502  0.59430952  0.72213584    -0.12510
C634        C  0.25484864  0.56737278  0.74781346     0.04500
C635        C  0.22707255  0.59638691  0.77075432    -0.07800
C636        C  0.21440054  0.65152551  0.76705763    -0.08540
C637        C  0.23156902  0.67926109  0.74144261    -0.03090
C638        C  0.25916350  0.64942397  0.71840912     0.03730
N639        N  0.27752291  0.67411158  0.69131866     0.66230
H640        H  0.29158292  0.57186711  0.70468102     0.15130
H641        H  0.19569045  0.67360680  0.78535409     0.14840
N642        N  0.21431783  0.57125321  0.79837986     0.73940
O643        O  0.32483731  0.65759118  0.67806581    -0.39510
O644        O  0.24169851  0.70644808  0.67839007    -0.39460
O645        O  0.25707805  0.54640285  0.81158684    -0.40160
O646        O  0.16634677  0.58388764  0.81234083    -0.40230
C647        C  0.25710516  0.09381714  0.76844430    -0.12510
C648        C  0.24610033  0.06684675  0.74210971     0.04500
C649        C  0.22766302  0.09770466  0.71717312    -0.07800
C650        C  0.22668226  0.15404087  0.71863436    -0.08540
C651        C  0.23795780  0.18074530  0.74489384    -0.03090
C652        C  0.25150076  0.14991969  0.77040302     0.03730
N653        N  0.26049753  0.17415243  0.79846768     0.66230
H654        H  0.26836779  0.07098767  0.78805796     0.15130
H655        H  0.21499775  0.17722421  0.69919926     0.14840
N656        N  0.20773894  0.07331356  0.69039533     0.73940
O657        O  0.23300049  0.15446171  0.82034594    -0.39510
O658        O  0.30728089  0.20331373  0.80279277    -0.39460
O659        O  0.15449392  0.05254542  0.68920801    -0.40160
O660        O  0.23255927  0.08828186  0.66680641    -0.40230
C661        C  0.69179060  0.52257590  0.63246828    -0.12510
C662        C  0.65782043  0.54726341  0.65491753     0.04500
C663        C  0.59351935  0.55404568  0.65125988    -0.07800
C664        C  0.56652691  0.54262487  0.62450483    -0.08540
C665        C  0.60135091  0.52346404  0.60097292    -0.03090
C666        C  0.66389370  0.50946958  0.60555429     0.03730
N667        N  0.69998689  0.48387884  0.58338930     0.66230
H668        H  0.74073021  0.51501635  0.63550542     0.15130
H669        H  0.51749594  0.55063532  0.62188387     0.14840
N670        N  0.55519381  0.57616317  0.67356861     0.73940
O671        O  0.75641711  0.49581959  0.58070352    -0.39510
O672        O  0.67999142  0.44159828  0.57138676    -0.39460
O673        O  0.54623601  0.62639656  0.67426575    -0.40160
O674        O  0.52017386  0.54532150  0.68796489    -0.40230
C675        C  0.87915347  0.73216098  0.64821941    -0.12510
C676        C  0.82302804  0.70441397  0.64661087     0.04500
C677        C  0.79712567  0.69339447  0.61859606    -0.07800
C678        C  0.83148044  0.70531437  0.59329774    -0.08540
C679        C  0.88915754  0.73071015  0.59516274    -0.03090
C680        C  0.91142540  0.74690723  0.62293285     0.03730
N681        N  0.96524931  0.78004647  0.62594823     0.66230
H682        H  0.89798907  0.74265940  0.66947219     0.15130
H683        H  0.81381177  0.69330506  0.57208157     0.14840
N684        N  0.73805560  0.66767434  0.61528361     0.73940
O685        O  0.00110136  0.77276069  0.64750891    -0.39510
O686        O  0.96620596  0.82502914  0.61298890    -0.39460
O687        O  0.69033797  0.69036409  0.62506648    -0.40160
O688        O  0.73162193  0.63017775  0.59696922    -0.40230
C689        C  0.94708184  0.48625499  0.77398302    -0.12510
C690        C  0.94704798  0.53740032  0.76028826     0.04500
C691        C  0.00276329  0.55590263  0.74751435    -0.07800
C692        C  0.05539760  0.52273209  0.74802941    -0.08540
C693        C  0.05450902  0.47098570  0.76061250    -0.03090
C694        C  0.99954614  0.45234334  0.77396420     0.03730
N695        N  0.99549202  0.39969990  0.78740952     0.66230
H696        H  0.90471516  0.47127116  0.78356654     0.15130
H697        H  0.09759318  0.53739715  0.73808160     0.14840
N698        N  0.00696027  0.60779662  0.73362285     0.73940
O699        O  0.95461718  0.39014763  0.80634738    -0.39510
O700        O  0.02929537  0.36139762  0.77907809    -0.39460
O701        O  0.99184867  0.64964370  0.74740303    -0.40160
O702        O  0.03397332  0.61263136  0.70934013    -0.40230
C703        C  0.50122120  0.69408287  0.75945955    -0.12510
C704        C  0.55548399  0.72439667  0.76191451     0.04500
C705        C  0.55014040  0.78084473  0.76548410    -0.07800
C706        C  0.49150729  0.80528162  0.76620256    -0.08540
C707        C  0.43711376  0.77506363  0.76305622    -0.03090
C708        C  0.44254162  0.71835346  0.75985994     0.03730
N709        N  0.38982018  0.68450069  0.75553158     0.66230
H710        H  0.50442173  0.65081006  0.75674949     0.15130
H711        H  0.48859754  0.84877615  0.76775096     0.14840
N712        N  0.60315176  0.81495928  0.76434804     0.73940
O713        O  0.39239106  0.64779073  0.73659496    -0.39510
O714        O  0.34995633  0.68088658  0.77540925    -0.39460
O715        O  0.62768996  0.82341906  0.73981172    -0.40160
O716        O  0.61272046  0.84801858  0.78475290    -0.40230
C717        C  0.67050800  0.00538537  0.60182190    -0.12510
C718        C  0.60579368  0.00509571  0.60198805     0.04500
C719        C  0.57523128  0.01429223  0.62859413    -0.07800
C720        C  0.60809135  0.03073619  0.65319036    -0.08540
C721        C  0.67213769  0.03849577  0.65238812    -0.03090
C722        C  0.70439186  0.02219787  0.62674679     0.03730
N723        N  0.77046597  0.02492080  0.62467528     0.66230
H724        H  0.69460336  0.99758525  0.58157629     0.15130
H725        H  0.58234771  0.03937662  0.67287464     0.14840
N726        N  0.51001484  0.00749440  0.63100727     0.73940
O727        O  0.79962177  0.98517066  0.61459039    -0.39510
O728        O  0.79752114  0.06987225  0.62622254    -0.39460
O729        O  0.48941926  0.96092234  0.63626825    -0.40160
O730        O  0.47676797  0.04787540  0.63654551    -0.40230
C731        C  0.81055254  0.22142561  0.62778619    -0.12510
C732        C  0.83871951  0.18960966  0.64975482     0.04500
C733        C  0.89609599  0.16513887  0.64386808    -0.07800
C734        C  0.92348108  0.17270774  0.61682829    -0.08540
C735        C  0.89767072  0.20661071  0.59532691    -0.03090
C736        C  0.84050920  0.23200463  0.60106302     0.03730
N737        N  0.81168047  0.26751618  0.58023215     0.66230
H738        H  0.76550637  0.23895507  0.63155692     0.15130
H739        H  0.96630399  0.15165381  0.61289534     0.14840
N740        N  0.92593391  0.12968292  0.66437284     0.73940
O741        O  0.75524737  0.26131099  0.57389673    -0.39510
O742        O  0.83776218  0.31136356  0.57355668    -0.39460
O743        O  0.93086195  0.08024900  0.65849617    -0.40160
O744        O  0.95816906  0.14923041  0.68483605    -0.40230
C745        C  0.93874393  0.97667806  0.76645482    -0.12510
C746        C  0.94287707  0.03309275  0.76317735     0.04500
C747        C  0.00161220  0.05677955  0.75890861    -0.07800
C748        C  0.05384381  0.02339225  0.75702044    -0.08540
C749        C  0.04960528  0.96703441  0.75985274    -0.03090
C750        C  0.99118847  0.94314858  0.76488135     0.03730
N751        N  0.98395882  0.88573037  0.76874141     0.66230
H752        H  0.89380956  0.95837255  0.76970926     0.15130
H753        H  0.09872277  0.04172836  0.75355085     0.14840
N754        N  0.00952907  0.11431590  0.75727221     0.73940
O755        O  0.93204531  0.86380274  0.76434017    -0.39510
O756        O  0.02732434  0.85741895  0.77920002    -0.39460
O757        O  0.97894972  0.14479312  0.77378812    -0.40160
O758        O  0.05296682  0.13427075  0.74238330    -0.40230
C759        C  0.75719526  0.90545312  0.77038988    -0.12510
C760        C  0.74678237  0.93346605  0.74413805     0.04500
C761        C  0.74743106  0.90475301  0.71755723    -0.07800
C762        C  0.75572679  0.84887406  0.71778100    -0.08540
C763        C  0.76476494  0.82054052  0.74406786    -0.03090
C764        C  0.76659589  0.84960827  0.77062966     0.03730
N765        N  0.77430876  0.82297935  0.79822097     0.66230
H766        H  0.75924462  0.92722498  0.79086658     0.15130
H767        H  0.75371907  0.82727071  0.69724842     0.14840
N768        N  0.73892791  0.93147209  0.69008545     0.73940
O769        O  0.82223218  0.83198925  0.81330247    -0.39510
O770        O  0.72805103  0.80158991  0.81028624    -0.39460
O771        O  0.78515281  0.95244194  0.67777047    -0.40160
O772        O  0.69142887  0.92099038  0.67498450    -0.40230
C773        C  0.72215398  0.34628953  0.76379819    -0.12510
C774        C  0.75429596  0.31972893  0.74158191     0.04500
C775        C  0.78130768  0.35034672  0.71906709    -0.07800
C776        C  0.77693952  0.40663535  0.71950036    -0.08540
C777        C  0.74503691  0.43387519  0.74176910    -0.03090
C778        C  0.71708302  0.40272161  0.76419522     0.03730
N779        N  0.68492012  0.42713512  0.78795515     0.66230
H780        H  0.70044398  0.32285232  0.78100088     0.15130
H781        H  0.79835817  0.42915202  0.70189123     0.14840
N782        N  0.81209610  0.32503334  0.69525399     0.73940
O783        O  0.63025949  0.41268307  0.79350124    -0.39510
O784        O  0.71505604  0.45285301  0.80703217    -0.39460
O785        O  0.78172839  0.29433795  0.67868762    -0.40160
O786        O  0.86417358  0.34215979  0.68704182    -0.40230
C787        C  0.44227968  0.22406948  0.76658247    -0.12510
C788        C  0.44258482  0.28022093  0.76183907     0.04500
C789        C  0.49995327  0.30611372  0.75683933    -0.07800
C790        C  0.55438387  0.27522329  0.75604017    -0.08540
C791        C  0.55378403  0.21902597  0.76009332    -0.03090
C792        C  0.49691172  0.19298754  0.76606537     0.03730
N793        N  0.49340504  0.13583432  0.77198843     0.66230
H794        H  0.39865168  0.20383082  0.76983029     0.15130
H795        H  0.59786363  0.29532387  0.75166136     0.14840
N796        N  0.50411188  0.36342230  0.75239417     0.73940
O797        O  0.44220395  0.11152763  0.77030088    -0.39510
O798        O  0.53963380  0.11041503  0.78183622    -0.39460
O799        O  0.47488022  0.39514236  0.76876427    -0.40160
O800        O  0.54296500  0.38260748  0.73464356    -0.40230
C801        C  0.84957101  0.55074404  0.89624837    -0.12510
C802        C  0.90929971  0.57150754  0.89970086     0.04500
C803        C  0.93309335  0.60667614  0.87793004    -0.07800
C804        C  0.89757444  0.61703607  0.85254983    -0.08540
C805        C  0.84070677  0.59093522  0.84801605    -0.03090
C806        C  0.81606617  0.55826304  0.87070018     0.03730
N807        N  0.75868699  0.52952247  0.86790733     0.66230
H808        H  0.82942114  0.52534019  0.91306752     0.15130
H809        H  0.91658034  0.64231344  0.83541379     0.14840
N810        N  0.99396369  0.62933160  0.88006699     0.73940
O811        O  0.75711467  0.47947463  0.87299992    -0.39510
O812        O  0.70851512  0.55498525  0.86558567    -0.39460
O813        O  0.04031242  0.59873464  0.88251267    -0.40160
O814        O  0.00231769  0.67833541  0.87364042    -0.40230
C815        C  0.15937205  0.42954140  0.90104413    -0.12510
C816        C  0.09638920  0.41859488  0.90285898     0.04500
C817        C  0.06543963  0.39369941  0.87905556    -0.07800
C818        C  0.09820938  0.38378059  0.85324719    -0.08540
C819        C  0.15925045  0.40158685  0.85031845    -0.03090
C820        C  0.19073781  0.42319663  0.87502004     0.03730
N821        N  0.25400999  0.44057111  0.87432201     0.66230
H822        H  0.18354732  0.44766484  0.91939662     0.15130
H823        H  0.07435919  0.36658726  0.83463608     0.14840
N824        N  0.00019928  0.38309194  0.87946188     0.73940
O825        O  0.29152188  0.42042001  0.89258221    -0.39510
O826        O  0.26612118  0.48659164  0.86398175    -0.39460
O827        O  0.96267860  0.42093048  0.88421187    -0.40160
O828        O  0.97982652  0.33920385  0.86943038    -0.40230
C829        C  0.90804239  0.11467562  0.85184518    -0.12510
C830        C  0.84543766  0.09976162  0.85003518     0.04500
C831        C  0.81559641  0.08151103  0.87576621    -0.07800
C832        C  0.84907989  0.07508281  0.90160839    -0.08540
C833        C  0.91296495  0.08433405  0.90300381    -0.03090
C834        C  0.94227531  0.10768289  0.87817896     0.03730
N835        N  0.00554274  0.12538894  0.87939398     0.66230
H836        H  0.93060801  0.13068087  0.83257874     0.15130
H837        H  0.82469680  0.05895569  0.92036266     0.14840
N838        N  0.75124073  0.06768327  0.87628059     0.73940
O839        O  0.03808457  0.12537013  0.85656980    -0.39510
O840        O  0.02548756  0.14973158  0.90172143    -0.39460
O841        O  0.73468126  0.02181244  0.86736585    -0.40160
O842        O  0.71639129  0.09224837  0.89374206    -0.40230
C843        C  0.07820694  0.97053824  0.87631138    -0.12510
C844        C  0.07676327  0.93128775  0.89834576     0.04500
C845        C  0.10105313  0.87939844  0.89270667    -0.07800
C846        C  0.13024608  0.86990890  0.86559428    -0.08540
C847        C  0.13509594  0.91070428  0.84425858    -0.03090
C848        C  0.10733431  0.96130630  0.84962477     0.03730
N849        N  0.10744238  0.00402819  0.82836099     0.66230
H850        H  0.05844200  0.00992890  0.88032381     0.15130
H851        H  0.15134897  0.83113484  0.86147551     0.14840
N852        N  0.09663662  0.83641154  0.91388022     0.73940
O853        O  0.05714819  0.02744168  0.82235188    -0.39510
O854        O  0.15743135  0.02745026  0.82204765    -0.39460
O855        O  0.05272773  0.83522854  0.93189056    -0.40160
O856        O  0.13227698  0.79625377  0.91247317    -0.40230
C857        C  0.94659317  0.78324272  0.99760187    -0.12510
C858        C  0.00381604  0.81023915  0.99598138     0.04500
C859        C  0.05901697  0.78026912  0.99554997    -0.07800
C860        C  0.05516320  0.72407562  0.99585587    -0.08540
C861        C  0.99807815  0.69683115  0.99741174    -0.03090
C862        C  0.94287380  0.72677931  0.99818166     0.03730
N863        N  0.88319063  0.70116243  0.99783803     0.66230
H864        H  0.90421089  0.80649838  0.99780063     0.15130
H865        H  0.09766204  0.70126790  0.99479915     0.14840
N866        N  0.11876835  0.80539382  0.99307333     0.73940
O867        O  0.83779808  0.72368250  0.00988498    -0.39510
O868        O  0.87358404  0.66017586  0.98222237    -0.39460
O869        O  0.13457560  0.84249958  0.01031849    -0.40160
O870        O  0.15951327  0.78436901  0.97713339    -0.40230
C871        C  0.05477142  0.22155523  0.98982050    -0.12510
C872        C  0.00024718  0.19402732  0.99778286     0.04500
C873        C  0.95171735  0.22294962  0.01093044    -0.07800
C874        C  0.95953466  0.27812956  0.01610338    -0.08540
C875        C  0.01302617  0.30557742  0.00720416    -0.03090
C876        C  0.06186543  0.27706856  0.99427051     0.03730
N877        N  0.11776415  0.30366347  0.98489916     0.66230
H878        H  0.09293671  0.19945536  0.98048878     0.15130
H879        H  0.92129904  0.30095219  0.02495107     0.14840
N880        N  0.89291904  0.19827084  0.01706540     0.73940
O881        O  0.13620461  0.34617178  0.99723226    -0.39510
O882        O  0.15198602  0.28212721  0.96600050    -0.39460
O883        O  0.86058589  0.21499139  0.03803410    -0.40160
O884        O  0.86871713  0.16644087  0.99882036    -0.40230
C885        C  0.68207499  0.67461092  0.87016412    -0.12510
C886        C  0.64906139  0.65426069  0.84611353     0.04500
C887        C  0.58653522  0.63917033  0.84987992    -0.07800
C888        C  0.55722027  0.65152536  0.87660814    -0.08540
C889        C  0.59004896  0.67543140  0.89999739    -0.03090
C890        C  0.65425496  0.68431906  0.89684200     0.03730
N891        N  0.69201333  0.70577091  0.91989968     0.66230
H892        H  0.73099292  0.68355028  0.86827467     0.15130
H893        H  0.50844743  0.64284561  0.87905271     0.14840
N894        N  0.55224428  0.61226264  0.82724545     0.73940
O895        O  0.70407281  0.67714343  0.94212995    -0.39510
O896        O  0.72173859  0.74893586  0.91580095    -0.39460
O897        O  0.57486979  0.57135822  0.81505189    -0.40160
O898        O  0.49535453  0.62179734  0.82388108    -0.40230
C899        C  0.41573134  0.78081831  0.87651857    -0.12510
C900        C  0.42130630  0.82239544  0.89675708     0.04500
C901        C  0.39533881  0.87351553  0.89026619    -0.07800
C902        C  0.36269775  0.88047574  0.86354990    -0.08540
C903        C  0.35415496  0.83733992  0.84409840    -0.03090
C904        C  0.38137655  0.78705950  0.85088948     0.03730
N905        N  0.37345608  0.74092157  0.83266545     0.66230
H906        H  0.43516579  0.74154899  0.88151730     0.15130
H907        H  0.34127406  0.91889632  0.85850890     0.14840
N908        N  0.40024437  0.91777388  0.91042300     0.73940
O909        O  0.42092013  0.71535630  0.82493432    -0.39510
O910        O  0.32210026  0.71676962  0.83260832    -0.39460
O911        O  0.44319707  0.91929302  0.92919740    -0.40160
O912        O  0.36380800  0.95736615  0.90839067    -0.40230
C913        C  0.30720065  0.59976950  0.99749699    -0.12510
C914        C  0.30584148  0.65345361  0.00707037     0.04500
C915        C  0.25047496  0.67417483  0.01906382    -0.07800
C916        C  0.19869513  0.63970344  0.02116484    -0.08540
C917        C  0.19889052  0.58698991  0.00989448    -0.03090
C918        C  0.25471344  0.56642453  0.99836611     0.03730
N919        N  0.25940807  0.51222711  0.98746838     0.66230
H920        H  0.34977778  0.58378402  0.98871916     0.15130
H921        H  0.15633620  0.65526282  0.03028661     0.14840
N922        N  0.24496568  0.72921209  0.02898835     0.73940
O923        O  0.29598500  0.50173061  0.96685271    -0.39510
O924        O  0.23335722  0.47369246  0.00067629    -0.39460
O925        O  0.28427625  0.76462662  0.02218901    -0.40160
O926        O  0.19833923  0.74357968  0.04346329    -0.40230
C927        C  0.79686587  0.86525798  0.02828721    -0.12510
C928        C  0.80138045  0.91154353  0.01038553     0.04500
C929        C  0.74951594  0.92570146  0.99278968    -0.07800
C930        C  0.69676717  0.89256526  0.99263465    -0.08540
C931        C  0.69326081  0.84560087  0.00975379    -0.03090
C932        C  0.74388798  0.83191534  0.02803494     0.03730
N933        N  0.74310961  0.78413702  0.04595332     0.66230
H934        H  0.83606512  0.85357243  0.04175071     0.15130
H935        H  0.65794314  0.90358309  0.97879603     0.14840
N936        N  0.74950841  0.97290476  0.97453805     0.73940
O937        O  0.77602984  0.78156067  0.06882901    -0.39510
O938        O  0.71577293  0.74221183  0.03722781    -0.39460
O939        O  0.73316139  0.96946136  0.94804984    -0.40160
O940        O  0.75500193  0.01886646  0.98594842    -0.40230
C941        C  0.59606865  0.13304516  0.85372197    -0.12510
C942        C  0.64809196  0.16518753  0.84744449     0.04500
C943        C  0.66883691  0.20179524  0.86915539    -0.07800
C944        C  0.63858912  0.20535493  0.89571219    -0.08540
C945        C  0.58598704  0.17467517  0.90204946    -0.03090
C946        C  0.56418184  0.13754599  0.88071852     0.03730
N947        N  0.51153215  0.10344175  0.88611650     0.66230
H948        H  0.58064743  0.10392267  0.83773321     0.15130
H949        H  0.65583379  0.23470036  0.91124465     0.14840
N950        N  0.72153154  0.23587763  0.86507910     0.73940
O951        O  0.48047529  0.08491057  0.86495987    -0.39510
O952        O  0.49984199  0.08685739  0.91164677    -0.39460
O953        O  0.71460404  0.28189909  0.85360934    -0.40160
O954        O  0.77196938  0.22430045  0.87763184    -0.40230
C955        C  0.40636440  0.35273187  0.85073744    -0.12510
C956        C  0.34521252  0.33453826  0.84810298     0.04500
C957        C  0.31663793  0.30956268  0.87256586    -0.07800
C958        C  0.34925870  0.30321464  0.89845232    -0.08540
C959        C  0.41137879  0.31801925  0.90088753    -0.03090
C960        C  0.44027735  0.34432305  0.87686247     0.03730
N961        N  0.50320863  0.36263518  0.87846029     0.66230
H962        H  0.42815876  0.37241818  0.83226399     0.15130
H963        H  0.32591187  0.28303710  0.91634910     0.14840
N964        N  0.25442260  0.28948260  0.87187216     0.73940
O965        O  0.53726814  0.36040853  0.85617229    -0.39510
O966        O  0.52206898  0.38805232  0.90061862    -0.39460
O967        O  0.24449827  0.24358372  0.86109008    -0.40160
O968        O  0.21588849  0.30779163  0.88986612    -0.40230
C969        C  0.30802843  0.10090762  0.00798304    -0.12510
C970        C  0.30591442  0.15615905  0.01456226     0.04500
C971        C  0.24806284  0.17970017  0.02172518    -0.07800
C972        C  0.19494302  0.14645737  0.02210402    -0.08540
C973        C  0.19690252  0.09157092  0.01443384    -0.03090
C974        C  0.25473084  0.06844882  0.00778675     0.03730
N975        N  0.26042310  0.01231581  0.00078625     0.66230
H976        H  0.35173084  0.08295765  0.00210821     0.15130
H977        H  0.15063780  0.16434002  0.02706313     0.14840
N978        N  0.24131539  0.23625297  0.02867178     0.73940
O979        O  0.29801752  0.99742058  0.98143714    -0.39510
O980        O  0.23326632  0.97711598  0.01608512    -0.39460
O981        O  0.28389975  0.26982672  0.02384100    -0.40160
O982        O  0.19168136  0.25324728  0.03968499    -0.40230
C983        C  0.46451158  0.52884113  0.00912196    -0.12510
C984        C  0.50252117  0.55515127  0.98879986     0.04500
C985        C  0.52785399  0.52556977  0.96556891    -0.07800
C986        C  0.51793217  0.46957889  0.96448571    -0.08540
C987        C  0.48310550  0.44220772  0.98597543    -0.03090
C988        C  0.45291310  0.47324181  0.00753627     0.03730
N989        N  0.40936911  0.44961409  0.02745483     0.66230
H990        H  0.44123560  0.55237966  0.02563948     0.15130
H991        H  0.54160419  0.44687451  0.94784163     0.14840
N992        N  0.56748037  0.55079632  0.94433426     0.73940
O993        O  0.40667346  0.46589280  0.05353050    -0.39510
O994        O  0.36677864  0.41965909  0.01778619    -0.39460
O995        O  0.60333352  0.58844375  0.95188766    -0.40160
O996        O  0.57298238  0.53085510  0.91913748    -0.40230
C997        C  0.46496957  0.02774347  0.01640428    -0.12510
C998        C  0.50849531  0.05590632  0.99956789     0.04500
C999        C  0.54545359  0.02769714  0.97959559    -0.07800
C1000       C  0.53702345  0.97185305  0.97675331    -0.08540
C1001       C  0.49340838  0.94293621  0.99362719    -0.03090
C1002       C  0.45594683  0.97198354  0.01334454     0.03730
N1003       N  0.40725394  0.94648074  0.02959045     0.66230
H1004       H  0.43550431  0.04996260  0.03113475     0.15130
H1005       H  0.56639892  0.95063653  0.96162441     0.14840
N1006       N  0.59211396  0.05464393  0.96248121     0.73940
O1007       O  0.39634091  0.96099958  0.05547196    -0.39510
O1008       O  0.36848558  0.91688302  0.01658698    -0.39460
O1009       O  0.61853880  0.09644375  0.97200027    -0.40160
O1010       O  0.61168722  0.03371341  0.93919858    -0.40230
C1011       C  0.74509133  0.32805038  0.99325720    -0.12510
C1012       C  0.69055085  0.35430279  0.00174807     0.04500
C1013       C  0.69251414  0.41178067  0.00490247    -0.07800
C1014       C  0.75011349  0.43810083  0.00423427    -0.08540
C1015       C  0.80468621  0.41013810  0.99913397    -0.03090
C1016       C  0.80082430  0.35620153  0.98976047     0.03730
N1017       N  0.84855584  0.33282682  0.97221278     0.66230
H1018       H  0.74346274  0.28580042  0.98747227     0.15130
H1019       H  0.75259112  0.48109438  0.00809972     0.14840
N1020       N  0.63846522  0.44535883  0.00749215     0.73940
O1021       O  0.85429369  0.28227189  0.97124531    -0.39510
O1022       O  0.87148969  0.36059798  0.95174113    -0.39460
O1023       O  0.59695521  0.43478709  0.02585131    -0.40160
O1024       O  0.63990644  0.49231469  0.99674876    -0.40230
C1025       C  0.40141573  0.69395658  0.14798922    -0.12510
C1026       C  0.33718879  0.70046710  0.14892963     0.04500
C1027       C  0.30561905  0.71566070  0.12279833    -0.07800
C1028       C  0.33926901  0.72286498  0.09671338    -0.08540
C1029       C  0.40285472  0.71214961  0.09565643    -0.03090
C1030       C  0.43387022  0.69677673  0.12185485     0.03730
N1031       N  0.49762494  0.68084504  0.12261536     0.66230
H1032       H  0.42676828  0.68191569  0.16747835     0.15130
H1033       H  0.31511086  0.73442096  0.07691283     0.14840
N1034       N  0.23964830  0.72089848  0.12175079     0.73940
O1035       O  0.53223326  0.69994943  0.14232713    -0.39510
O1036       O  0.51244342  0.63627477  0.11152869    -0.39460
O1037       O  0.21274633  0.75446545  0.13789160    -0.40160
O1038       O  0.20899929  0.69689942  0.10217749    -0.40230
C1039       C  0.06823485  0.57171416  0.12021776    -0.12510
C1040       C  0.09554018  0.53901227  0.09892422     0.04500
C1041       C  0.15418686  0.51597451  0.10490640    -0.07800
C1042       C  0.18443623  0.52844663  0.13142846    -0.08540
C1043       C  0.15698491  0.56213214  0.15232220    -0.03090
C1044       C  0.09742987  0.58322551  0.14655198     0.03730
N1045       N  0.06693787  0.61931279  0.16617333     0.66230
H1046       H  0.02280569  0.58899253  0.11655794     0.15130
H1047       H  0.23048402  0.51284269  0.13541591     0.14840
N1048       N  0.18494691  0.48203539  0.08430702     0.73940
O1049       O  0.05102374  0.66552166  0.15723619    -0.39510
O1050       O  0.04471941  0.60148146  0.18979183    -0.39460
O1051       O  0.19031960  0.49706531  0.05807041    -0.40160
O1052       O  0.21649047  0.44241581  0.09330666    -0.40230
C1053       C  0.31471452  0.56866104  0.37141522    -0.12510
C1054       C  0.34911069  0.58988336  0.34796346     0.04500
C1055       C  0.41327297  0.59825430  0.35170723    -0.07800
C1056       C  0.44148551  0.58172912  0.37816122    -0.08540
C1057       C  0.40698593  0.55762175  0.40075532    -0.03090
C1058       C  0.34264034  0.55240301  0.39754805     0.03730
N1059       N  0.30462069  0.53156214  0.42060004     0.66230
H1060       H  0.26514326  0.56329806  0.36918132     0.15130
H1061       H  0.49103883  0.58625294  0.38082163     0.14840
N1062       N  0.45080890  0.62050019  0.32882480     0.73940
O1063       O  0.25797794  0.55802770  0.42864375    -0.39510
O1064       O  0.30938833  0.48281438  0.42826779    -0.39460
O1065       O  0.43597151  0.66463992  0.31688585    -0.40160
O1066       O  0.50415141  0.60176177  0.32445326    -0.40230
C1067       C  0.09039361  0.65457328  0.34708229    -0.12510
C1068       C  0.15443929  0.66392587  0.34738326     0.04500
C1069       C  0.18278583  0.68010139  0.37399827    -0.07800
C1070       C  0.14746598  0.68517105  0.39921087    -0.08540
C1071       C  0.08290026  0.67952055  0.39888612    -0.03090
C1072       C  0.05392943  0.66334755  0.37225250     0.03730
N1073       N  0.98807569  0.65758479  0.36976480     0.66230
H1074       H  0.06817943  0.64255751  0.32683502     0.15130
H1075       H  0.17119711  0.69787159  0.41895023     0.14840
N1076       N  0.24697384  0.69453053  0.37595873     0.73940
O1077       O  0.96047558  0.67418894  0.34702675    -0.39510
O1078       O  0.95902147  0.62843498  0.38772154    -0.39460
O1079       O  0.26415720  0.73914485  0.36536840    -0.40160
O1080       O  0.27982720  0.67334212  0.39582381    -0.40230
C1081       C  0.33470260  0.22388015  0.09647062    -0.12510
C1082       C  0.39857664  0.23255351  0.09868370     0.04500
C1083       C  0.42600627  0.23384456  0.12669292    -0.07800
C1084       C  0.39136381  0.22155215  0.15138247    -0.08540
C1085       C  0.32892291  0.20767937  0.14922844    -0.03090
C1086       C  0.29933265  0.21160776  0.12146781     0.03730
N1087       N  0.23487788  0.20030461  0.11778494     0.66230
H1088       H  0.31309775  0.22260650  0.07514370     0.15130
H1089       H  0.41433300  0.22155738  0.17253952     0.14840
N1090       N  0.48912472  0.24851538  0.13073158     0.73940
O1091       O  0.20068305  0.23415980  0.10484135    -0.39510
O1092       O  0.21497699  0.15314144  0.12199222    -0.39460
O1093       O  0.50416177  0.29699333  0.12640374    -0.40160
O1094       O  0.52289186  0.21943495  0.14697268    -0.40230
C1095       C  0.09745643  0.04855416  0.15278370    -0.12510
C1096       C  0.16224924  0.04706646  0.15347352     0.04500
C1097       C  0.19369074  0.02990357  0.12782281    -0.07800
C1098       C  0.15998996  0.02119156  0.10167240    -0.08540
C1099       C  0.09574929  0.02803079  0.10069745    -0.03090
C1100       C  0.06431876  0.03962749  0.12694530     0.03730
N1101       N  0.99835705  0.04347905  0.12779224     0.66230
H1102       H  0.07190815  0.05988900  0.17210572     0.15130
H1103       H  0.18427969  0.01084328  0.08182503     0.14840
N1104       N  0.25948935  0.02261797  0.12754680     0.73940
O1105       O  0.96835388  0.00882769  0.14219989    -0.39510
O1106       O  0.97274897  0.08766030  0.12128054    -0.39460
O1107       O  0.28494393  0.99250230  0.14643466    -0.40160
O1108       O  0.29047806  0.03837788  0.10579381    -0.40230
C1109       C  0.25489748  0.90987314  0.21992188    -0.12510
C1110       C  0.25338775  0.93619813  0.24694372     0.04500
C1111       C  0.26476718  0.90578993  0.27273279    -0.07800
C1112       C  0.27601783  0.85007534  0.27081377    -0.08540
C1113       C  0.27441812  0.82336226  0.24377975    -0.03090
C1114       C  0.26598642  0.85433752  0.21798564     0.03730
N1115       N  0.27261055  0.83071535  0.18965177     0.66230
H1116       H  0.24984566  0.93332716  0.19996769     0.15130
H1117       H  0.28164943  0.82696466  0.29084728     0.14840
N1118       N  0.26593087  0.93059730  0.30097138     0.73940
O1119       O  0.24365913  0.85013591  0.16795873    -0.39510
O1120       O  0.31679662  0.79877616  0.18521457    -0.39460
O1121       O  0.21759234  0.95230889  0.31072988    -0.40160
O1122       O  0.31043621  0.92134016  0.31827218    -0.40230
C1123       C  0.24949414  0.35065024  0.21687667    -0.12510
C1124       C  0.26381748  0.32338027  0.24301882     0.04500
C1125       C  0.26905237  0.35357627  0.26925905    -0.07800
C1126       C  0.25668366  0.40917316  0.26867618    -0.08540
C1127       C  0.24138085  0.43601051  0.24255239    -0.03090
C1128       C  0.23868954  0.40631910  0.21633869     0.03730
N1129       N  0.22172573  0.43166698  0.18925715     0.66230
H1130       H  0.24430769  0.32805662  0.19678314     0.15130
H1131       H  0.26218306  0.43216880  0.28861753     0.14840
N1132       N  0.28555841  0.32893982  0.29674476     0.73940
O1133       O  0.24727088  0.41759990  0.16575147    -0.39510
O1134       O  0.17397397  0.46071429  0.18813957    -0.39460
O1135       O  0.33660439  0.30476161  0.29935019    -0.40160
O1136       O  0.25702958  0.34202386  0.31963587    -0.40230
C1137       C  0.34397886  0.12527772  0.37258002    -0.12510
C1138       C  0.37035785  0.10729917  0.34636792     0.04500
C1139       C  0.42533369  0.07713173  0.34788345    -0.07800
C1140       C  0.44801657  0.05981689  0.37503259    -0.08540
C1141       C  0.41933040  0.07492355  0.40100936    -0.03090
C1142       C  0.36894776  0.11072146  0.40002099     0.03730
N1143       N  0.34163494  0.13144599  0.42619026     0.66230
H1144       H  0.30169460  0.14772999  0.37176501     0.15130
H1145       H  0.48911494  0.03489822  0.37598740     0.14840
N1146       N  0.46099997  0.06717274  0.32239663     0.73940
O1147       O  0.32347681  0.17970872  0.42683911    -0.39510
O1148       O  0.33603499  0.10230512  0.44875623    -0.39460
O1149       O  0.47535857  0.10694968  0.30658810    -0.40160
O1150       O  0.49239272  0.02444642  0.32065682    -0.40230
C1151       C  0.18729230  0.19794736  0.37085748    -0.12510
C1152       C  0.15992364  0.16765621  0.34835818     0.04500
C1153       C  0.09906367  0.14801260  0.35247587    -0.07800
C1154       C  0.06716688  0.16118454  0.37840806    -0.08540
C1155       C  0.09592329  0.19051366  0.40110953    -0.03090
C1156       C  0.15783904  0.20737915  0.39728636     0.03730
N1157       N  0.19171503  0.23539624  0.41961998     0.66230
H1158       H  0.23311240  0.21464703  0.36818538     0.15130
H1159       H  0.01980099  0.14788560  0.38097110     0.14840
N1160       N  0.06812693  0.11664080  0.33055559     0.73940
O1161       O  0.20587008  0.21112449  0.44307855    -0.39510
O1162       O  0.21798208  0.27951297  0.41363586    -0.39460
O1163       O  0.09127121  0.07258767  0.32243059    -0.40160
O1164       O  0.01256227  0.12683100  0.32400624    -0.40230
C1165       C  0.56836853  0.81100886  0.11812276    -0.12510
C1166       C  0.59400335  0.77477957  0.09789941     0.04500
C1167       C  0.64549893  0.74315957  0.10704489    -0.07800
C1168       C  0.67463394  0.75531863  0.13404307    -0.08540
C1169       C  0.64971453  0.79365009  0.15323293    -0.03090
C1170       C  0.59381026  0.81928933  0.14557154     0.03730
N1171       N  0.56275424  0.85553268  0.16488602     0.66230
H1172       H  0.52641561  0.83310069  0.11308888     0.15130
H1173       H  0.71608725  0.73380311  0.14055023     0.14840
N1174       N  0.66690346  0.69756765  0.09067857     0.73940
O1175       O  0.55161864  0.90320133  0.15663153    -0.39510
O1176       O  0.53515649  0.83690189  0.18700478    -0.39460
O1177       O  0.62841379  0.66501813  0.07980526    -0.40160
O1178       O  0.72264569  0.68293726  0.09288252    -0.40230
C1179       C  0.81019576  0.98174280  0.12973368    -0.12510
C1180       C  0.81937141  0.93132404  0.14325894     0.04500
C1181       C  0.85419502  0.89211319  0.12878854    -0.07800
C1182       C  0.88393751  0.90509343  0.10296570    -0.08540
C1183       C  0.88228718  0.95758043  0.09121301    -0.03090
C1184       C  0.84215973  0.99582557  0.10389346     0.03730
N1185       N  0.83471651  0.04880803  0.09163756     0.66230
H1186       H  0.77915642  0.01033548  0.13953095     0.15130
H1187       H  0.91112605  0.87376407  0.09280118     0.14840
N1188       N  0.85951473  0.83832757  0.13991923     0.73940
O1189       O  0.83291362  0.08925976  0.10820312    -0.39510
O1190       O  0.81980873  0.05445297  0.06505921    -0.39460
O1191       O  0.82193713  0.80298581  0.13111105    -0.40160
O1192       O  0.90936072  0.82363711  0.15202051    -0.40230
C1193       C  0.99919028  0.80617078  0.25068142    -0.12510
C1194       C  0.94527618  0.77815368  0.25832301     0.04500
C1195       C  0.95072368  0.72375632  0.26799847    -0.07800
C1196       C  0.00911946  0.69877063  0.26845538    -0.08540
C1197       C  0.06287576  0.72756892  0.26157198    -0.03090
C1198       C  0.05754975  0.78220700  0.25330552     0.03730
N1199       N  0.11100818  0.81437080  0.24797425     0.66230
H1200       H  0.99626179  0.84786684  0.24361731     0.15130
H1201       H  0.01268291  0.65664072  0.27462190     0.14840
N1202       N  0.89792208  0.69258627  0.27657127     0.73940
O1203       O  0.11627106  0.83905413  0.22389264    -0.39510
O1204       O  0.14317796  0.82916400  0.26957111    -0.39460
O1205       O  0.86847841  0.70546170  0.29922342    -0.40160
O1206       O  0.89039313  0.64601520  0.26617911    -0.40230
C1207       C  0.44637042  0.98047456  0.26201306    -0.12510
C1208       C  0.45135280  0.03595736  0.25579079     0.04500
C1209       C  0.51055220  0.05772139  0.24950504    -0.07800
C1210       C  0.56264637  0.02399865  0.25180111    -0.08540
C1211       C  0.55763356  0.96879449  0.25852936    -0.03090
C1212       C  0.49816272  0.94623445  0.26289735     0.03730
N1213       N  0.48883186  0.88949800  0.26849755     0.66230
H1214       H  0.40110534  0.96338111  0.26607123     0.15130
H1215       H  0.60790231  0.04092679  0.24753653     0.14840
N1216       N  0.51955413  0.11319280  0.24088241     0.73940
O1217       O  0.43619747  0.86851656  0.26468786    -0.39510
O1218       O  0.53145187  0.86070484  0.27913310    -0.39460
O1219       O  0.48966577  0.15068577  0.25279323    -0.40160
O1220       O  0.56297749  0.12545352  0.22374620    -0.40230
C1221       C  0.58994532  0.88447213  0.38666025    -0.12510
C1222       C  0.59967630  0.93497045  0.39976229     0.04500
C1223       C  0.63800623  0.97266963  0.38541232    -0.07800
C1224       C  0.65886132  0.96251296  0.35754040    -0.08540
C1225       C  0.65174527  0.91193009  0.34445316    -0.03090
C1226       C  0.61740983  0.87164164  0.35954456     0.03730
N1227       N  0.61189740  0.81757564  0.34882497     0.66230
H1228       H  0.56114718  0.85485890  0.39751716     0.15130
H1229       H  0.68602951  0.99391229  0.34720314     0.14840
N1230       N  0.66196974  0.01914167  0.40003142     0.73940
O1231       O  0.61542668  0.77837598  0.36649062    -0.39510
O1232       O  0.59266948  0.80910201  0.32317777    -0.39460
O1233       O  0.69493264  0.01236664  0.42259705    -0.40160
O1234       O  0.66138513  0.06460828  0.38748384    -0.40230
C1235       C  0.82674184  0.86189263  0.37058759    -0.12510
C1236       C  0.85934736  0.85433775  0.34444831     0.04500
C1237       C  0.92312017  0.84310720  0.34579564    -0.07800
C1238       C  0.95068723  0.83251090  0.37309660    -0.08540
C1239       C  0.91666158  0.83518991  0.39915555    -0.03090
C1240       C  0.85521707  0.85450280  0.39804822     0.03730
N1241       N  0.82172089  0.86710234  0.42428395     0.66230
H1242       H  0.77827476  0.87276880  0.36948033     0.15130
H1243       H  0.99856713  0.81977063  0.37382138     0.14840
N1244       N  0.96002047  0.84068064  0.31992048     0.73940
O1245       O  0.76336185  0.86824289  0.42399720    -0.39510
O1246       O  0.85007026  0.88512464  0.44640156    -0.39460
O1247       O  0.95493177  0.87727330  0.30077356    -0.40160
O1248       O  0.00573259  0.80913206  0.31896434    -0.40230
C1249       C  0.63256541  0.24415754  0.11008894    -0.12510
C1250       C  0.61798775  0.28921646  0.09251713     0.04500
C1251       C  0.63277686  0.34086170  0.10297151    -0.07800
C1252       C  0.65593736  0.34756904  0.13102743    -0.08540
C1253       C  0.66768027  0.30356483  0.14915179    -0.03090
C1254       C  0.65660097  0.25079990  0.13877513     0.03730
N1255       N  0.66325162  0.20472364  0.15773895     0.66230
H1256       H  0.61955857  0.20434640  0.10264342     0.15130
H1257       H  0.66623996  0.38790859  0.13854845     0.14840
N1258       N  0.63144264  0.38635468  0.08399142     0.73940
O1259       O  0.65175428  0.20886402  0.18466805    -0.39510
O1260       O  0.67045006  0.15837054  0.14706395    -0.39460
O1261       O  0.60684080  0.42972705  0.09226450    -0.40160
O1262       O  0.67112971  0.38787199  0.06406126    -0.40230
C1263       C  0.79952599  0.45333555  0.12526762    -0.12510
C1264       C  0.83383192  0.45241710  0.15154279     0.04500
C1265       C  0.89655410  0.46943435  0.15049448    -0.07800
C1266       C  0.92275865  0.48431885  0.12357431    -0.08540
C1267       C  0.88969308  0.48052036  0.09718013    -0.03090
C1268       C  0.82731562  0.46527906  0.09831211     0.03730
N1269       N  0.79447816  0.45259412  0.07228910     0.66230
H1270       H  0.75209192  0.43956652  0.12506544     0.15130
H1271       H  0.97142909  0.49442564  0.12300940     0.14840
N1272       N  0.93556039  0.47067051  0.17594433     0.73940
O1273       O  0.79965532  0.40551925  0.06234227    -0.39510
O1274       O  0.74809284  0.48070448  0.06526218    -0.39460
O1275       O  0.95291617  0.42702718  0.18765184    -0.40160
O1276       O  0.96602952  0.51291822  0.18123372    -0.40230
C1277       C  0.99991071  0.30542925  0.26628391    -0.12510
C1278       C  0.94570129  0.27667625  0.26014151     0.04500
C1279       C  0.94970101  0.22041443  0.25613448    -0.07800
C1280       C  0.00690666  0.19422413  0.25812443    -0.08540
C1281       C  0.06150793  0.22268569  0.26401168    -0.03090
C1282       C  0.05740883  0.27911326  0.26883558     0.03730
N1283       N  0.11075119  0.31067253  0.27593105     0.66230
H1284       H  0.99735392  0.34853648  0.26973316     0.15130
H1285       H  0.00885875  0.15136971  0.25377526     0.14840
N1286       N  0.89749225  0.19001341  0.24663279     0.73940
O1287       O  0.11981865  0.35474292  0.26269928    -0.39510
O1288       O  0.13930919  0.30149665  0.29958960    -0.39460
O1289       O  0.88357823  0.19115367  0.21980015    -0.40160
O1290       O  0.87865440  0.15133209  0.26226092    -0.40230
C1291       C  0.71718832  0.58985007  0.26719581    -0.12510
C1292       C  0.75273199  0.56368521  0.24602471     0.04500
C1293       C  0.78070939  0.59376235  0.22372617    -0.07800
C1294       C  0.77137888  0.64945696  0.22255281    -0.08540
C1295       C  0.73752363  0.67682516  0.24424357    -0.03090
C1296       C  0.70921393  0.64605440  0.26672301     0.03730
N1297       N  0.67248453  0.67047317  0.28909629     0.66230
H1298       H  0.69398815  0.56608441  0.28376119     0.15130
H1299       H  0.79437444  0.67181391  0.20536472     0.14840
N1300       N  0.82218375  0.56873450  0.20353712     0.73940
O1301       O  0.67734469  0.65433762  0.31525674    -0.39510
O1302       O  0.62823509  0.70120672  0.28216237    -0.39460
O1303       O  0.83103609  0.58905533  0.17852111    -0.40160
O1304       O  0.85684498  0.53104289  0.21230517    -0.40230
C1305       C  0.73185294  0.08865657  0.26631695    -0.12510
C1306       C  0.75284245  0.06412603  0.24065317     0.04500
C1307       C  0.76487047  0.09620001  0.21586707    -0.07800
C1308       C  0.75548121  0.15199904  0.21733039    -0.08540
C1309       C  0.73752836  0.17738109  0.24335195    -0.03090
C1310       C  0.72477550  0.14474119  0.26816005     0.03730
N1311       N  0.70785564  0.16730823  0.29575590     0.66230
H1312       H  0.72125851  0.06388271  0.28526140     0.15130
H1313       H  0.76645868  0.17639749  0.19833962     0.14840
N1314       N  0.79070235  0.07364069  0.18982951     0.73940
O1315       O  0.66204742  0.14830062  0.30933740    -0.39510
O1316       O  0.74625390  0.19608023  0.30946864    -0.39460
O1317       O  0.78483735  0.09825309  0.16573139    -0.40160
O1318       O  0.82852563  0.03505676  0.19168995    -0.40230
C1319       C  0.55677021  0.51975655  0.25246558    -0.12510
C1320       C  0.55462910  0.46487907  0.26022326     0.04500
C1321       C  0.49691210  0.44173228  0.26766980    -0.07800
C1322       C  0.44338461  0.47447904  0.26748572    -0.08540
C1323       C  0.44549728  0.52931770  0.25929128    -0.03090
C1324       C  0.50321269  0.55160744  0.25149396     0.03730
N1325       N  0.50826403  0.60642504  0.24206617     0.66230
H1326       H  0.60038402  0.53780374  0.24620594     0.15130
H1327       H  0.39934535  0.45659055  0.27318407     0.14840
N1328       N  0.49148076  0.38558422  0.27539358     0.73940
O1329       O  0.52632980  0.64189564  0.25980805    -0.39510
O1330       O  0.50305615  0.61802022  0.21524183    -0.39460
O1331       O  0.53519469  0.36119255  0.28821323    -0.40160
O1332       O  0.44119044  0.36093618  0.27111084    -0.40230
C1333       C  0.63500681  0.36282553  0.36509741    -0.12510
C1334       C  0.64547181  0.40555957  0.34538121     0.04500
C1335       C  0.62672970  0.45784336  0.35293566    -0.07800
C1336       C  0.60004601  0.46706158  0.37979971    -0.08540
C1337       C  0.59302425  0.42580338  0.40064851    -0.03090
C1338       C  0.60978713  0.37246679  0.39308532     0.03730
N1339       N  0.60619792  0.32896483  0.41387664     0.66230
H1340       H  0.65134543  0.32285955  0.35970927     0.15130
H1341       H  0.58552866  0.50794035  0.38442137     0.14840
N1342       N  0.63706696  0.50307010  0.33408381     0.73940
O1343       O  0.59607890  0.28153648  0.40522029    -0.39510
O1344       O  0.62258171  0.33627316  0.44010070    -0.39460
O1345       O  0.59571878  0.51614381  0.31586492    -0.40160
O1346       O  0.67767101  0.53729838  0.34104105    -0.40230
C1347       C  0.85119650  0.37902486  0.36739953    -0.12510
C1348       C  0.86277236  0.34243657  0.34471101     0.04500
C1349       C  0.90690056  0.30126842  0.34911542    -0.07800
C1350       C  0.93828944  0.29795844  0.37577383    -0.08540
C1351       C  0.92301495  0.33112066  0.39925184    -0.03090
C1352       C  0.87942340  0.37311737  0.39517691     0.03730
N1353       N  0.86275038  0.40938652  0.41842672     0.66230
H1354       H  0.81639378  0.40987910  0.36406255     0.15130
H1355       H  0.97113242  0.26547768  0.37907548     0.14840
N1356       N  0.91797073  0.26011646  0.32791453     0.73940
O1357       O  0.83651626  0.45361632  0.41253306    -0.39510
O1358       O  0.87186521  0.39707426  0.44492818    -0.39460
O1359       O  0.97242573  0.24320848  0.32440968    -0.40160
O1360       O  0.87368454  0.23103912  0.31933319    -0.40230
loop_ 
_geom_bond_atom_site_label_1 
_geom_bond_atom_site_label_2 
_geom_bond_distance 
_geom_bond_site_symmetry_2 
_ccdc_geom_bond_type 
O1            C9   1.311       .  A
O1          Co21   2.088       .  S
O2           C10   1.259       .  A
O2          Co22   1.972       .  S
O3           C11   1.254       .  A
O3          Co23   2.058       .  S
O4           C12   1.289       .  A
O4          Co24   2.047       .  S
O5           C11   1.240       .  A
O5          Co22   1.969       .  S
O6           C12   1.278       .  A
O6          Co21   1.958       .  S
O7           C10   1.273       .  A
O7          Co24   2.031       .  S
O8            C9   1.280       .  A
O8          Co23   1.889       .  S
C9         C1348   1.472       .  S
C10        C1264   1.499       .  S
C11        C1278   1.486       .  S
C12        C1292   1.467       .  S
O13          C26   1.257       .  A
O13         Co21   2.062       .  S
O14          C27   1.293       .  A
O14         Co22   2.051       .  S
O15          C28   1.311       .  A
O15         Co23   2.095       .  S
O16          C29   1.258       .  A
O16         Co24   1.970       .  S
O17          C29   1.265       .  A
O17         Co22   2.007       .  S
O18          C28   1.277       .  A
O18         Co21   1.871       .  S
O19          C26   1.243       .  A
O19         Co24   1.973       .  S
O20          C27   1.280       .  A
O20         Co23   1.966       .  S
Co21         O25   2.028       .  S
Co22         O25   2.026       .  S
Co23         O25   2.050       .  S
Co24         O25   2.033       .  S
C26        C1320   1.490       .  S
C27        C1309   1.489       .  S
C28        C1334   1.471       .  S
C29        C1253   1.466       .  S
O30          C38   1.291   1_565  A
O30         Co50   2.055       .  S
O31          C39   1.251       .  A
O31         Co51   2.039       .  S
O32          C40   1.310       .  A
O32         Co52   2.084       .  S
O33          C41   1.260       .  A
O33         Co53   1.959       .  S
O34          C40   1.282       .  A
O34         Co51   1.891       .  S
O35          C41   1.267       .  A
O35         Co50   2.020       .  S
O36          C39   1.246       .  A
O36         Co53   1.968       .  S
O37          C38   1.281   1_565  A
O37         Co52   1.961       .  S
C38        C1306   1.473       .  S
C39        C1194   1.490       .  S
C40        C1236   1.477       .  S
C41        C1180   1.473       .  S
O42          C55   1.253       .  A
O42         Co50   1.951       .  S
O43          C56   1.309       .  A
O43         Co51   2.091       .  S
O44          C57   1.253       .  A
O44         Co52   2.056       .  S
O45          C58   1.287       .  A
O45         Co53   2.024       .  S
O46          C58   1.281       .  A
O46         Co51   1.970       .  S
O47          C57   1.237       .  A
O47         Co50   1.961       .  S
O48          C55   1.266       .  A
O48         Co53   2.018       .  S
O49          C56   1.281       .  A
O49         Co52   1.858       .  S
Co50         O54   2.024       .  S
Co51         O54   2.046       .  S
Co52         O54   2.025       .  S
Co53         O54   2.028       .  S
C55        C1169   1.479       .  S
C56        C1225   1.486       .  S
C57        C1211   1.484       .  S
C58        C1295   1.491       .  S
O59          C67   1.294       .  A
O59         Co79   2.060       .  S
O60          C68   1.256       .  A
O60         Co80   2.045       .  S
O61          C69   1.311       .  A
O61         Co81   2.101       .  S
O62          C70   1.260       .  A
O62         Co82   1.956       .  S
O63          C69   1.279       .  A
O63         Co80   1.894       .  S
O64          C70   1.265       .  A
O64         Co79   2.018       .  S
O65          C68   1.240       .  A
O65         Co82   1.956       .  S
O66          C67   1.276       .  A
O66         Co81   1.955       .  S
C67        C1124   1.485       .  S
C68        C1208   1.489       .  S
C69        C1138   1.481       .  S
C70        C1085   1.485       .  S
O71          C84   1.265       .  A
O71         Co79   1.978       .  S
O72          C85   1.314       .  A
O72         Co80   2.106       .  S
O73          C86   1.252       .  A
O73         Co81   2.055       .  S
O74          C87   1.290   1_545  A
O74         Co82   2.042       .  S
O75          C87   1.283   1_545  A
O75         Co80   1.973       .  S
O76          C86   1.244       .  A
O76         Co79   1.968       .  S
O77          C84   1.266       .  A
O77         Co82   2.014       .  S
O78          C85   1.281       .  A
O78         Co81   1.874       .  S
Co79         O83   2.035       .  S
Co80         O83   2.045       .  S
Co81         O83   2.040       .  S
Co82         O83   2.026       .  S
C84        C1096   1.499       .  S
C85        C1152   1.492       .  S
C86        C1281   1.493       .  S
C87        C1110   1.483       .  S
O88          C96   1.286       .  A
O88        Co108   2.035       .  S
O89          C97   1.253       .  A
O89        Co109   2.059       .  S
O90          C98   1.320       .  A
O90        Co110   2.120       .  S
O91          C99   1.252       .  A
O91        Co111   1.943       .  S
O92          C98   1.277       .  A
O92        Co109   1.864       .  S
O93          C99   1.269       .  A
O93        Co108   2.027       .  S
O94          C97   1.237       .  A
O94        Co111   1.966       .  S
O95          C96   1.285       .  A
O95        Co110   1.978       .  S
C96        C1127   1.479       .  S
C97        C1197   1.483       .  S
C98        C1068   1.490       .  S
C99        C1043   1.481       .  S
O100        C113   1.259       .  A
O100       Co108   1.954       .  S
O101        C114   1.316       .  A
O101       Co109   2.105       .  S
O102        C115   1.259       .  A
O102       Co110   2.062       .  S
O103        C116   1.294       .  A
O103       Co111   2.057       .  S
O104        C116   1.285       .  A
O104       Co109   1.974       .  S
O105        C115   1.244       .  A
O105       Co108   1.968       .  S
O106        C113   1.266       .  A
O106       Co111   2.022       .  S
O107        C114   1.279       .  A
O107       Co110   1.858       .  S
Co108       O112   2.030       .  S
Co109       O112   2.036       .  S
Co110       O112   2.027       .  S
Co111       O112   2.011       .  S
C113       C1026   1.491       .  S
C114       C1054   1.479       .  S
C115       C1323   1.498       .  S
C116       C1113   1.489       .  S
O117        C125   1.281       .  A
O117       Co137   1.899       .  S
O118        C126   1.262       .  A
O118       Co138   2.008       .  S
O119        C127   1.283   1_554  A
O119       Co139   1.968       .  S
O120        C128   1.242   1_556  A
O120       Co140   1.965       .  S
O121        C127   1.293       .  A
O121       Co138   2.054       .  S
O122        C128   1.257       .  A
O122       Co137   2.056       .  S
O123        C126   1.259       .  A
O123       Co140   1.958       .  S
O124        C125   1.309       .  A
O124       Co139   2.094       .  S
C125       C1082   1.481       .  S
C126        C959   1.480       .  S
C127        C987   1.497       .  S
C128        C970   1.489       .  S
O129        C142   1.283   1_554  A
O129       Co137   1.973       .  S
O130        C143   1.241   1_556  A
O130       Co138   1.955       .  S
O131        C144   1.285       .  A
O131       Co139   1.885       .  S
O132        C145   1.271       .  A
O132       Co140   2.040       .  S
O133        C145   1.260       .  A
O133       Co138   1.959       .  S
O134        C144   1.311       .  A
O134       Co137   2.090       .  S
O135        C142   1.288       .  A
O135       Co140   2.039       .  S
O136        C143   1.247       .  A
O136       Co139   2.042       .  S
Co137       O141   2.042   1_554  S
Co138       O141   2.028       .  S
Co139       O141   2.039   1_554  S
Co140       O141   2.024       .  S
C142        C998   1.470       .  S
C143       C1012   1.495       .  S
C144       C1250   1.485       .  S
C145        C945   1.492       .  S
O146        C154   1.276       .  A
O146       Co166   1.867       .  S
O147        C155   1.267       .  A
O147       Co167   2.016       .  S
O148        C156   1.283   1_554  A
O148       Co168   1.970       .  S
O149        C157   1.246   1_556  A
O149       Co169   1.974       .  S
O150        C156   1.290       .  A
O150       Co167   2.038       .  S
O151        C157   1.254       .  A
O151       Co166   2.041       .  S
O152        C155   1.259       .  A
O152       Co169   1.972       .  S
O153        C154   1.318       .  A
O153       Co168   2.110       .  S
C154       C1029   1.483       .  S
C155        C900   1.471       .  S
C156       C1001   1.496       .  S
C157        C914   1.483       .  S
O158        C171   1.285   1_554  A
O158       Co166   1.977       .  S
O159        C172   1.242   1_556  A
O159       Co167   1.972       .  S
O160        C173   1.279       .  A
O160       Co168   1.844       .  S
O161        C174   1.270       .  A
O161       Co169   2.027       .  S
O162        C174   1.256       .  A
O162       Co167   1.949       .  S
O163        C173   1.316       .  A
O163       Co166   2.109       .  S
O164        C171   1.287       .  A
O164       Co169   2.039       .  S
O165        C172   1.254       .  A
O165       Co168   2.056       .  S
Co166       O170   2.032   1_554  S
Co167       O170   2.022       .  S
Co168       O170   2.027   1_554  S
Co169       O170   2.037       .  S
C171        C984   1.473       .  S
C172        C931   1.488       .  S
C173       C1166   1.493       .  S
C174        C889   1.489       .  S
O175        C183   1.279       .  A
O175       Co195   1.862       .  S
O176        C184   1.269   1_455  A
O176       Co196   2.032       .  S
O177        C185   1.280   1_654  A
O177       Co197   1.957   1_655  S
O178        C186   1.240   1_556  A
O178       Co198   1.965       .  S
O179        C185   1.289       .  A
O179       Co196   2.036       .  S
O180        C186   1.256       .  A
O180       Co195   2.074       .  S
O181        C184   1.260       .  A
O181       Co198   1.961   1_545  S
O182        C183   1.314   1_545  A
O182       Co197   2.105   1_655  S
C183       C1183   1.484       .  S
C184        C833   1.497       .  S
C185        C872   1.479       .  S
C186        C928   1.502       .  S
O187        C200   1.278   1_554  A
O187       Co195   1.949   1_455  S
O188        C201   1.249   1_556  A
O188       Co196   1.973       .  S
O189        C202   1.277       .  A
O189       Co197   1.882       .  S
O190        C203   1.267   1_655  A
O190       Co198   2.013       .  S
O191        C203   1.263       .  A
O191       Co196   1.982   1_565  S
O192        C202   1.314   1_565  A
O192       Co195   2.103   1_455  S
O193        C200   1.293   1_655  A
O193       Co198   2.050       .  S
O194        C201   1.258       .  A
O194       Co197   2.050       .  S
Co195       O199   2.032   1_664  S
Co196       O199   2.038       .  S
Co197       O199   2.035   1_554  S
Co198       O199   2.016   1_665  S
C200        C858   1.468       .  S
C201        C973   1.496       .  S
C202       C1099   1.484       .  S
C203        C844   1.479       .  S
O204        C212   1.273       .  A
O204       Co224   1.877       .  S
O205        C213   1.249       .  A
O205       Co225   1.947   1_455  S
O206        C214   1.263       .  A
O206       Co226   1.958   1_455  S
O207        C215   1.246   1_556  A
O207       Co227   1.951       .  S
O208        C214   1.269   1_656  A
O208       Co225   2.015       .  S
O209        C215   1.267       .  A
O209       Co224   2.075       .  S
O210        C213   1.258       .  A
O210       Co227   1.950       .  S
O211        C212   1.306       .  A
O211       Co226   2.098   1_455  S
C212       C1040   1.483       .  S
C213        C816   1.462       .  S
C214        C875   1.460       .  S
C215        C917   1.494       .  S
O216        C229   1.271   1_654  A
O216       Co224   1.980   1_655  S
O217        C230   1.232   1_556  A
O217       Co225   1.937       .  S
O218        C231   1.271       .  A
O218       Co226   1.889       .  S
O219        C232   1.255       .  A
O219       Co227   1.977   1_655  S
O220        C232   1.255       .  A
O220       Co225   1.936       .  S
O221        C231   1.313       .  A
O221       Co224   2.115   1_655  S
O222        C229   1.268       .  A
O222       Co227   1.994       .  S
O223        C230   1.265       .  A
O223       Co226   2.086       .  S
Co224       O228   2.059   1_554  S
Co225       O228   2.064   1_655  S
Co226       O228   2.083   1_654  S
Co227       O228   2.089       .  S
C229        C861   1.473   1_455  S
C230       C1015   1.478   1_554  S
C231       C1267   1.485       .  S
C232        C802   1.478       .  S
O233        C241   1.318       .  A
O233       Co253   2.113       .  S
O234        C242   1.254       .  A
O234       Co254   1.950       .  S
O235        C243   1.254       .  A
O235       Co255   2.045       .  S
O236        C244   1.290       .  A
O236       Co256   2.050       .  S
O237        C243   1.243       .  A
O237       Co254   1.966       .  S
O238        C244   1.284       .  A
O238       Co253   1.973       .  S
O239        C242   1.267       .  A
O239       Co256   2.022       .  S
O240        C241   1.277       .  A
O240       Co255   1.865       .  S
C241        C830   1.487       .  S
C242        C732   1.481       .  S
C243        C746   1.488       .  S
C244        C774   1.476       .  S
O245        C258   1.254       .  A
O245       Co253   2.042       .  S
O246        C259   1.286   1_545  A
O246       Co254   2.028       .  S
O247        C260   1.320       .  A
O247       Co255   2.119       .  S
O248        C261   1.266       .  A
O248       Co256   1.967       .  S
O249        C261   1.267       .  A
O249       Co254   2.019       .  S
O250        C260   1.276       .  A
O250       Co253   1.853       .  S
O251        C258   1.246       .  A
O251       Co256   1.980       .  S
O252        C259   1.289   1_545  A
O252       Co255   1.982       .  S
Co253       O257   2.023       .  S
Co254       O257   2.017       .  S
Co255       O257   2.037       .  S
Co256       O257   2.040       .  S
C258        C791   1.487       .  S
C259        C760   1.474       .  S
C260        C942   1.497       .  S
C261        C721   1.494       .  S
O262        C270   1.315       .  A
O262       Co282   2.104       .  S
O263        C271   1.258       .  A
O263       Co283   1.951       .  S
O264        C272   1.250       .  A
O264       Co284   2.061       .  S
O265        C273   1.288       .  A
O265       Co285   2.039       .  S
O266        C272   1.242       .  A
O266       Co283   1.972       .  S
O267        C273   1.278       .  A
O267       Co282   1.973       .  S
O268        C271   1.268       .  A
O268       Co285   2.005       .  S
O269        C270   1.281       .  A
O269       Co284   1.853       .  S
C270        C886   1.483       .  S
C271        C662   1.475       .  S
C272        C704   1.494       .  S
C273        C777   1.494       .  S
O274        C287   1.261       .  A
O274       Co282   2.059       .  S
O275        C288   1.297       .  A
O275       Co283   2.057       .  S
O276        C289   1.314       .  A
O276       Co284   2.098       .  S
O277        C290   1.263       .  A
O277       Co285   1.975       .  S
O278        C290   1.263       .  A
O278       Co283   2.008       .  S
O279        C289   1.274       .  A
O279       Co282   1.852       .  S
O280        C287   1.247       .  A
O280       Co285   1.966       .  S
O281        C288   1.281       .  A
O281       Co284   1.956       .  S
Co282       O286   2.012       .  S
Co283       O286   2.002       .  S
Co284       O286   2.035       .  S
Co285       O286   2.035       .  S
C287        C690   1.501       .  S
C288        C763   1.478       .  S
C289        C805   1.475       .  S
C290        C676   1.484       .  S
O291        C299   1.315       .  A
O291       Co311   2.097       .  S
O292        C300   1.262       .  A
O292       Co312   1.978       .  S
O293        C301   1.258       .  A
O293       Co313   2.058       .  S
O294        C302   1.297       .  A
O294       Co314   2.069       .  S
O295        C301   1.246       .  A
O295       Co312   1.969       .  S
O296        C302   1.279       .  A
O296       Co311   1.954       .  S
O297        C300   1.268       .  A
O297       Co314   2.021       .  S
O298        C299   1.270       .  A
O298       Co313   1.846       .  S
C299        C819   1.467       .  S
C300        C623   1.481       .  S
C301        C693   1.485       .  S
C302        C651   1.477       .  S
O303        C316   1.252       .  A
O303       Co311   2.062       .  S
O304        C317   1.287       .  A
O304       Co312   2.038       .  S
O305        C318   1.318       .  A
O305       Co313   2.113       .  S
O306        C319   1.256       .  A
O306       Co314   1.954       .  S
O307        C319   1.265       .  A
O307       Co312   2.019       .  S
O308        C318   1.270       .  A
O308       Co311   1.844       .  S
O309        C316   1.237       .  A
O309       Co314   1.965       .  S
O310        C317   1.278       .  A
O310       Co313   1.965       .  S
Co311       O315   2.032       .  S
Co312       O315   2.048       .  S
Co313       O315   2.028       .  S
Co314       O315   2.005       .  S
C316        C788   1.495       .  S
C317        C634   1.470       .  S
C318        C956   1.475       .  S
C319        C606   1.484       .  S
O320        C328   1.316       .  A
O320       Co340   2.097       .  S
O321        C329   1.255       .  A
O321       Co341   1.959       .  S
O322        C330   1.253       .  A
O322       Co342   2.062       .  S
O323        C331   1.279   1_565  A
O323       Co343   2.016       .  S
O324        C330   1.244       .  A
O324       Co341   1.975       .  S
O325        C331   1.287   1_565  A
O325       Co340   1.985       .  S
O326        C329   1.268       .  A
O326       Co343   2.022       .  S
O327        C328   1.281       .  A
O327       Co342   1.880       .  S
C328        C903   1.480       .  S
C329        C581   1.473       .  S
C330        C707   1.495       .  S
C331        C648   1.486       .  S
O332        C345   1.255       .  A
O332       Co340   2.044       .  S
O333        C346   1.289       .  A
O333       Co341   2.034       .  S
O334        C347   1.316       .  A
O334       Co342   2.109       .  S
O335        C348   1.258       .  A
O335       Co343   1.970       .  S
O336        C348   1.269       .  A
O336       Co341   2.031       .  S
O337        C347   1.277       .  A
O337       Co340   1.882       .  S
O338        C345   1.246       .  A
O338       Co343   1.974       .  S
O339        C346   1.289       .  A
O339       Co342   1.980       .  S
Co340       O344   2.030       .  S
Co341       O344   2.024       .  S
Co342       O344   2.045       .  S
Co343       O344   2.044       .  S
C345        C749   1.482       .  S
C346        C637   1.490       .  S
C347        C847   1.482       .  S
C348        C592   1.481       .  S
O349        C357   1.257       .  A
O349       Co369   1.987       .  S
O350        C358   1.269       .  A
O350       Co370   1.899       .  S
O351        C359   1.257       .  A
O351       Co371   1.958       .  S
O352        C360   1.261       .  A
O352       Co372   1.968       .  S
O353        C359   1.268       .  A
O353       Co370   2.078       .  S
O354        C360   1.261       .  A
O354       Co369   1.963       .  S
O355        C358   1.304   1_565  A
O355       Co372   2.099       .  S
O356        C357   1.254   1_545  A
O356       Co371   1.955       .  S
C357       C1222   1.486       .  S
C358        C718   1.481       .  S
C359        C564   1.506       .  S
C360        C536   1.470       .  S
O361        C374   1.255       .  A
O361       Co369   1.972       .  S
O362        C375   1.264       .  A
O362       Co370   1.979       .  S
O363        C376   1.255       .  A
O363       Co371   1.971       .  S
O364        C377   1.273       .  A
O364       Co372   1.887       .  S
O365        C377   1.304   1_545  A
O365       Co370   2.091       .  S
O366        C376   1.258   1_565  A
O366       Co369   1.979       .  S
O367        C374   1.265       .  A
O367       Co372   2.067       .  S
O368        C375   1.248       .  A
O368       Co371   1.939       .  S
Co369       O373   2.098       .  S
Co370       O373   2.078   1_545  S
Co371       O373   2.062   1_545  S
Co372       O373   2.060       .  S
C374        C522   1.485       .  S
C375        C550   1.466       .  S
C376       C1141   1.463       .  S
C377        C578   1.485       .  S
O378        C386   1.255       .  A
O378       Co398   1.959       .  S
O379        C387   1.260       .  A
O379       Co399   1.871       .  S
O380        C388   1.247       .  A
O380       Co400   1.956       .  S
O381        C389   1.255       .  A
O381       Co401   1.932       .  S
O382        C388   1.269       .  A
O382       Co399   2.089       .  S
O383        C389   1.267       .  A
O383       Co398   1.996       .  S
O384        C387   1.303       .  A
O384       Co401   2.098       .  S
O385        C386   1.262       .  A
O385       Co400   1.986       .  S
C386       C1057   1.471       .  S
C387        C609   1.478       .  S
C388        C497   1.485       .  S
C389        C539   1.433       .  S
O390        C403   1.247       .  A
O390       Co398   1.961       .  S
O391        C404   1.250       .  A
O391       Co399   1.931       .  S
O392        C405   1.259       .  A
O392       Co400   1.981       .  S
O393        C406   1.272       .  A
O393       Co401   1.878       .  S
O394        C406   1.301       .  A
O394       Co399   2.082       .  S
O395        C405   1.259       .  A
O395       Co398   1.951       .  S
O396        C403   1.262       .  A
O396       Co401   2.069       .  S
O397        C404   1.266       .  A
O397       Co400   2.019       .  S
Co398       O402   2.072       .  S
Co399       O402   2.047       .  S
Co400       O402   2.096       .  S
Co401       O402   2.072       .  S
C403        C511   1.483       .  S
C404        C553   1.447       .  S
C405       C1337   1.482       .  S
C406        C665   1.469       .  S
O407        C415   1.265   1_455  A
O407       Co427   2.006       .  S
O408        C416   1.280       .  A
O408       Co428   1.866       .  S
O409        C417   1.242       .  A
O409       Co429   1.962       .  S
O410        C418   1.282       .  A
O410       Co430   1.967   1_655  S
O411        C417   1.255       .  A
O411       Co428   2.050       .  S
O412        C418   1.292   1_455  A
O412       Co427   2.045       .  S
O413        C416   1.309       .  A
O413       Co430   2.088   1_655  S
O414        C415   1.258       .  A
O414       Co429   1.970       .  S
C415       C1351   1.468       .  S
C416        C735   1.482       .  S
C417        C567   1.481       .  S
C418        C469   1.483       .  S
O419        C432   1.240       .  A
O419       Co427   1.958       .  S
O420        C433   1.278       .  A
O420       Co428   1.960   1_455  S
O421        C434   1.269       .  A
O421       Co429   2.029   1_455  S
O422        C435   1.284       .  A
O422       Co430   1.892       .  S
O423        C435   1.311       .  A
O423       Co428   2.093   1_455  S
O424        C434   1.256       .  A
O424       Co427   1.950       .  S
O425        C432   1.251       .  A
O425       Co430   2.062       .  S
O426        C433   1.289   1_655  A
O426       Co429   2.049       .  S
Co427       O431   2.004   1_455  S
Co428       O431   2.025       .  S
Co429       O431   2.044       .  S
Co430       O431   2.054   1_455  S
C432        C494   1.494       .  S
C433        C480   1.475       .  S
C434       C1155   1.493       .  S
C435        C620   1.480       .  S
O436        C444   1.267   1_455  A
O436       Co456   2.004       .  S
O437        C445   1.281       .  A
O437       Co457   1.908       .  S
O438        C446   1.246       .  A
O438       Co458   1.972       .  S
O439        C447   1.279       .  A
O439       Co459   1.962   1_655  S
O440        C446   1.253       .  A
O440       Co457   2.031       .  S
O441        C447   1.291   1_455  A
O441       Co456   2.048       .  S
O442        C445   1.308       .  A
O442       Co459   2.087   1_655  S
O443        C444   1.261       .  A
O443       Co458   1.971       .  S
C444       C1239   1.482       .  S
C445        C679   1.481       .  S
C446        C508   1.488       .  S
C447        C483   1.484       .  S
O448        C461   1.243       .  A
O448       Co456   1.970       .  S
O449        C462   1.283   1_455  A
O449       Co457   1.970   1_455  S
O450        C463   1.269   1_655  A
O450       Co458   2.036       .  S
O451        C464   1.283       .  A
O451       Co459   1.878       .  S
O452        C464   1.306       .  A
O452       Co457   2.075   1_455  S
O453        C463   1.260       .  A
O453       Co456   1.957       .  S
O454        C461   1.250       .  A
O454       Co459   2.047       .  S
O455        C462   1.290       .  A
O455       Co458   2.049       .  S
Co456       O460   2.027   1_455  S
Co457       O460   2.046       .  S
Co458       O460   2.046       .  S
Co459       O460   2.042   1_455  S
C461        C525   1.492       .  S
C462        C466   1.482       .  S
C463       C1071   1.502       .  S
C464        C595   1.473       .  S
C465        C466   1.405       .  A
C465        C470   1.407       .  A
C465        H472   1.084       .  S
C466        C467   1.412       .  A
C467        C468   1.400       .  A
C467        N474   1.433   1_655  S
C468        C469   1.403       .  A
C468        H473   1.084       .  S
C469        C470   1.417       .  A
C470        N471   1.436       .  S
N471        O475   1.263       .  A
N471        O476   1.262       .  A
N474        O477   1.261       .  A
N474        O478   1.263   1_455  A
C479        C480   1.402   1_655  A
C479        C484   1.400   1_545  A
C479        H486   1.085       .  S
C480        C481   1.410       .  A
C481        C482   1.405   1_545  A
C481        N488   1.435       .  S
C482        C483   1.407   1_455  A
C482        H487   1.084       .  S
C483        C484   1.416       .  A
C484        N485   1.433       .  S
N485        O489   1.262   1_655  A
N485        O490   1.262       .  A
N488        O491   1.261       .  A
N488        O492   1.263       .  A
C493        C494   1.403       .  A
C493        C498   1.401       .  A
C493        H500   1.084       .  S
C494        C495   1.422       .  A
C495        C496   1.412       .  A
C495        N502   1.433       .  S
C496        C497   1.402       .  A
C496        H501   1.084       .  S
C497        C498   1.415       .  A
C498        N499   1.435       .  S
N499        O503   1.263       .  A
N499        O504   1.262       .  A
N502        O505   1.261       .  A
N502        O506   1.262       .  A
C507        C508   1.409       .  A
C507        C512   1.412       .  A
C507        H514   1.083       .  S
C508        C509   1.412       .  A
C509        C510   1.406       .  A
C509        N516   1.439       .  S
C510        C511   1.408       .  A
C510        H515   1.084       .  S
C511        C512   1.420       .  A
C512        N513   1.449       .  S
N513        O517   1.263       .  A
N513        O518   1.261       .  A
N516        O519   1.263       .  A
N516        O520   1.262       .  A
C521        C522   1.406       .  A
C521        C526   1.403       .  A
C521        H528   1.082       .  S
C522        C523   1.420       .  A
C523        C524   1.416       .  A
C523        N530   1.447       .  S
C524        C525   1.411       .  A
C524        H529   1.083       .  S
C525        C526   1.409       .  A
C526        N527   1.436       .  S
N527        O531   1.262       .  A
N527        O532   1.263       .  A
N530        O533   1.262   1_565  A
N530        O534   1.263   1_565  A
C535        C536   1.415       .  A
C535        C540   1.387       .  A
C535        H542   1.082       .  S
C536        C537   1.411       .  A
C537        C538   1.396       .  A
C537        N544   1.433       .  S
C538        C539   1.401       .  A
C538        H543   1.085       .  S
C539        C540   1.397       .  A
C540        N541   1.444       .  S
N541        O545   1.263       .  A
N541        O546   1.263       .  A
N544        O547   1.262       .  A
N544        O548   1.262       .  A
C549        C550   1.395       .  A
C549        C554   1.399       .  A
C549        H556   1.083       .  S
C550        C551   1.429       .  A
C551        C552   1.380       .  A
C551        N558   1.434       .  S
C552        C553   1.381       .  A
C552        H557   1.084       .  S
C553        C554   1.419       .  A
C554        N555   1.438       .  S
N555        O559   1.263       .  A
N555        O560   1.258       .  A
N558        O561   1.263       .  A
N558        O562   1.262       .  A
C563        C564   1.409       .  A
C563        C568   1.401       .  A
C563        H570   1.075       .  S
C564        C565   1.427       .  A
C565        C566   1.412       .  A
C565        N572   1.435       .  S
C566        C567   1.399       .  A
C566        H571   1.083       .  S
C567        C568   1.409       .  A
C568        N569   1.436       .  S
N569        O573   1.262       .  A
N569        O574   1.262       .  A
N572        O575   1.261       .  A
N572        O576   1.262       .  A
C577        C578   1.405       .  A
C577        C582   1.391       .  A
C577        H584   1.084       .  S
C578        C579   1.417       .  A
C579        C580   1.413       .  A
C579        N586   1.436   1_565  S
C580        C581   1.403       .  A
C580        H585   1.078   1_565  S
C581        C582   1.411       .  A
C582        N583   1.435       .  S
N583        O587   1.263       .  A
N583        O588   1.262       .  A
N586        O589   1.262       .  A
N586        O590   1.263       .  A
C591        C592   1.404       .  A
C591        C596   1.411       .  A
C591        H598   1.081       .  S
C592        C593   1.413       .  A
C593        C594   1.394       .  A
C593        N600   1.429       .  S
C594        C595   1.396       .  A
C594        H599   1.085       .  S
C595        C596   1.416       .  A
C596        N597   1.439       .  S
N597        O601   1.263       .  A
N597        O602   1.262       .  A
N600        O603   1.262       .  A
N600        O604   1.262       .  A
C605        C606   1.400       .  A
C605        C610   1.381       .  A
C605        H612   1.084       .  S
C606        C607   1.424       .  A
C607        C608   1.415       .  A
C607        N614   1.441       .  S
C608        C609   1.403       .  A
C608        H613   1.083       .  S
C609        C610   1.418       .  A
C610        N611   1.435       .  S
N611        O615   1.261       .  A
N611        O616   1.262       .  A
N614        O617   1.260       .  A
N614        O618   1.263       .  A
C619        C620   1.395       .  A
C619        C624   1.394       .  A
C619        H626   1.079       .  S
C620        C621   1.419       .  A
C621        C622   1.416       .  A
C621        N628   1.438       .  S
C622        C623   1.403       .  A
C622        H627   1.083       .  S
C623        C624   1.410       .  A
C624        N625   1.427       .  S
N625        O629   1.262       .  A
N625        O630   1.262       .  A
N628        O631   1.262       .  A
N628        O632   1.263       .  A
C633        C634   1.390       .  A
C633        C638   1.399       .  A
C633        H640   1.080       .  S
C634        C635   1.413       .  A
C635        C636   1.405       .  A
C635        N642   1.433       .  S
C636        C637   1.406       .  A
C636        H641   1.084       .  S
C637        C638   1.425       .  A
C638        N639   1.436       .  S
N639        O643   1.263       .  A
N639        O644   1.258       .  A
N642        O645   1.261       .  A
N642        O646   1.263       .  A
C647        C648   1.400       .  A
C647        C652   1.401       .  A
C647        H654   1.084       .  S
C648        C649   1.424       .  A
C649        C650   1.400       .  A
C649        N656   1.433       .  S
C650        C651   1.395       .  A
C650        H655   1.084       .  S
C651        C652   1.420       .  A
C652        N653   1.432       .  S
N653        O657   1.263       .  A
N653        O658   1.259       .  A
N656        O659   1.263       .  A
N656        O660   1.261       .  A
C661        C662   1.410       .  A
C661        C666   1.407       .  A
C661        H668   1.083       .  S
C662        C663   1.410       .  A
C663        C664   1.383       .  A
C663        N670   1.431       .  S
C664        C665   1.403       .  A
C664        H669   1.085       .  S
C665        C666   1.411       .  A
C666        N667   1.435       .  S
N667        O671   1.263       .  A
N667        O672   1.262       .  A
N670        O673   1.262       .  A
N670        O674   1.262       .  A
C675        C676   1.397       .  A
C675        C680   1.401       .  A
C675        H682   1.084       .  S
C676        C677   1.422       .  A
C677        C678   1.408       .  A
C677        N684   1.436       .  S
C678        C679   1.400       .  A
C678        H683   1.083       .  S
C679        C680   1.415       .  A
C680        N681   1.431       .  S
N681        O685   1.262   1_655  A
N681        O686   1.261       .  A
N684        O687   1.262       .  A
N684        O688   1.263       .  A
C689        C690   1.412       .  A
C689        C694   1.414       .  A
C689        H696   1.083       .  S
C690        C691   1.418   1_655  A
C691        C692   1.406       .  A
C691        N698   1.435       .  S
C692        C693   1.404       .  A
C692        H697   1.084       .  S
C693        C694   1.416   1_455  A
C694        N695   1.443       .  S
N695        O699   1.263       .  A
N695        O700   1.262   1_655  A
N698        O701   1.262   1_455  A
N698        O702   1.263       .  A
C703        C704   1.398       .  A
C703        C708   1.406       .  A
C703        H710   1.084       .  S
C704        C705   1.416       .  A
C705        C706   1.407       .  A
C705        N712   1.426       .  S
C706        C707   1.402       .  A
C706        H711   1.084       .  S
C707        C708   1.421       .  A
C708        N709   1.429       .  S
N709        O713   1.262       .  A
N709        O714   1.260       .  A
N712        O715   1.260       .  A
N712        O716   1.262       .  A
C717        C718   1.400       .  A
C717        C722   1.416       .  A
C717        H724   1.084   1_545  S
C718        C719   1.408       .  A
C719        C720   1.389       .  A
C719        N726   1.426       .  S
C720        C721   1.399       .  A
C720        H725   1.084       .  S
C721        C722   1.429       .  A
C722        N723   1.435       .  S
N723        O727   1.263   1_545  A
N723        O728   1.261       .  A
N726        O729   1.261   1_545  A
N726        O730   1.262       .  A
C731        C732   1.409       .  A
C731        C736   1.410       .  A
C731        H738   1.083       .  S
C732        C733   1.411       .  A
C733        C734   1.386       .  A
C733        N740   1.433       .  S
C734        C735   1.403       .  A
C734        H739   1.081       .  S
C735        C736   1.415       .  A
C736        N737   1.434       .  S
N737        O741   1.262       .  A
N737        O742   1.262       .  A
N740        O743   1.262       .  A
N740        O744   1.262       .  A
C745        C746   1.410   1_565  A
C745        C750   1.410       .  A
C745        H752   1.083       .  S
C746        C747   1.414   1_655  A
C747        C748   1.405       .  A
C747        N754   1.439       .  S
C748        C749   1.407   1_545  A
C748        H753   1.084       .  S
C749        C750   1.415   1_455  A
C750        N751   1.443       .  S
N751        O755   1.263       .  A
N751        O756   1.262   1_655  A
N754        O757   1.263   1_455  A
N754        O758   1.263       .  A
C759        C760   1.400       .  A
C759        C764   1.401       .  A
C759        H766   1.084       .  S
C760        C761   1.412       .  A
C761        C762   1.398       .  A
C761        N768   1.427       .  S
C762        C763   1.401       .  A
C762        H767   1.084       .  S
C763        C764   1.416       .  A
C764        N765   1.429       .  S
N765        O769   1.262       .  A
N765        O770   1.261       .  A
N768        O771   1.261       .  A
N768        O772   1.262       .  A
C773        C774   1.403       .  A
C773        C778   1.405       .  A
C773        H780   1.084       .  S
C774        C775   1.406       .  A
C775        C776   1.400       .  A
C775        N782   1.429       .  S
C776        C777   1.410       .  A
C776        H781   1.083       .  S
C777        C778   1.418       .  A
C778        N779   1.432       .  S
N779        O783   1.262       .  A
N779        O784   1.262       .  A
N782        O785   1.259       .  A
N782        O786   1.262       .  A
C787        C788   1.409       .  A
C787        C792   1.412       .  A
C787        H794   1.080       .  S
C788        C789   1.416       .  A
C789        C790   1.406       .  A
C789        N796   1.438       .  S
C790        C791   1.406       .  A
C790        H795   1.084       .  S
C791        C792   1.417       .  A
C792        N793   1.444       .  S
N793        O797   1.263       .  A
N793        O798   1.262       .  A
N796        O799   1.262       .  A
N796        O800   1.263       .  A
C801        C802   1.399       .  A
C801        C806   1.382       .  A
C801        H808   1.085       .  S
C802        C803   1.419       .  A
C803        C804   1.410       .  A
C803        N810   1.434       .  S
C804        C805   1.405       .  A
C804        H809   1.083       .  S
C805        C806   1.419       .  A
C806        N807   1.437       .  S
N807        O811   1.263       .  A
N807        O812   1.260       .  A
N810        O813   1.262   1_655  A
N810        O814   1.262   1_655  A
C815        C816   1.392       .  A
C815        C820   1.383       .  A
C815        H822   1.085       .  S
C816        C817   1.418       .  A
C817        C818   1.403       .  A
C817        N824   1.436       .  S
C818        C819   1.399       .  A
C818        H823   1.082       .  S
C819        C820   1.422       .  A
C820        N821   1.435       .  S
N821        O825   1.262       .  A
N821        O826   1.261       .  A
N824        O827   1.263   1_455  A
N824        O828   1.262   1_455  A
C829        C830   1.406       .  A
C829        C834   1.419       .  A
C829        H836   1.083       .  S
C830        C831   1.417       .  A
C831        C832   1.390       .  A
C831        N838   1.434       .  S
C832        C833   1.402       .  A
C832        H837   1.084       .  S
C833        C834   1.423       .  A
C834        N835   1.438   1_655  S
N835        O839   1.262       .  A
N835        O840   1.263       .  A
N838        O841   1.262       .  A
N838        O842   1.262       .  A
C843        C844   1.397       .  A
C843        C848   1.397       .  A
C843        H850   1.084   1_565  S
C844        C845   1.417       .  A
C845        C846   1.416       .  A
C845        N852   1.440       .  S
C846        C847   1.406       .  A
C846        H851   1.083       .  S
C847        C848   1.416       .  A
C848        N849   1.434   1_565  S
N849        O853   1.262       .  A
N849        O854   1.262       .  A
N852        O855   1.261       .  A
N852        O856   1.263       .  A
C857        C858   1.409   1_655  A
C857        C862   1.404       .  A
C857        H864   1.084       .  S
C858        C859   1.408       .  A
C859        C860   1.397       .  A
C859        N866   1.440       .  S
C860        C861   1.409   1_455  A
C860        H865   1.082       .  S
C861        C862   1.408       .  A
C862        N863   1.439       .  S
N863        O867   1.262   1_556  A
N863        O868   1.263       .  A
N866        O869   1.261   1_556  A
N866        O870   1.263       .  A
C871        C872   1.411       .  A
C871        C876   1.402       .  A
C871        H878   1.083       .  S
C872        C873   1.412   1_456  A
C873        C874   1.401       .  A
C873        N880   1.440       .  S
C874        C875   1.404   1_655  A
C874        H879   1.085       .  S
C875        C876   1.408   1_554  A
C876        N877   1.443       .  S
N877        O881   1.262       .  A
N877        O882   1.263       .  A
N880        O883   1.263       .  A
N880        O884   1.263   1_554  A
C885        C886   1.403       .  A
C885        C890   1.386       .  A
C885        H892   1.085       .  S
C886        C887   1.415       .  A
C887        C888   1.416       .  A
C887        N894   1.437       .  S
C888        C889   1.413       .  A
C888        H893   1.083       .  S
C889        C890   1.414       .  A
C890        N891   1.434       .  S
N891        O895   1.262       .  A
N891        O896   1.263       .  A
N894        O897   1.262       .  A
N894        O898   1.262       .  A
C899        C900   1.395       .  A
C899        C904   1.391       .  A
C899        H906   1.084       .  S
C900        C901   1.417       .  A
C901        C902   1.416       .  A
C901        N908   1.441       .  S
C902        C903   1.407       .  A
C902        H907   1.083       .  S
C903        C904   1.412       .  A
C904        N905   1.430       .  S
N905        O909   1.261       .  A
N905        O910   1.262       .  A
N908        O911   1.261       .  A
N908        O912   1.263       .  A
C913        C914   1.405   1_556  A
C913        C918   1.405       .  A
C913        H920   1.084       .  S
C914        C915   1.419       .  A
C915        C916   1.412       .  A
C915        N922   1.447       .  S
C916        C917   1.409       .  A
C916        H921   1.082       .  S
C917        C918   1.418   1_554  A
C918        N919   1.441       .  S
N919        O923   1.263       .  A
N919        O924   1.262   1_556  A
N922        O925   1.261       .  A
N922        O926   1.263       .  A
C927        C928   1.410       .  A
C927        C932   1.413       .  A
C927        H934   1.083       .  S
C928        C929   1.419   1_554  A
C929        C930   1.406       .  A
C929        N936   1.434       .  S
C930        C931   1.402   1_556  A
C930        H935   1.082       .  S
C931        C932   1.414       .  A
C932        N933   1.437       .  S
N933        O937   1.263       .  A
N933        O938   1.262       .  A
N936        O939   1.263       .  A
N936        O940   1.262   1_565  A
C941        C942   1.409       .  A
C941        C946   1.423       .  A
C941        H948   1.082       .  S
C942        C943   1.420       .  A
C943        C944   1.386       .  A
C943        N950   1.431       .  S
C944        C945   1.400       .  A
C944        H949   1.084       .  S
C945        C946   1.424       .  A
C946        N947   1.440       .  S
N947        O951   1.263       .  A
N947        O952   1.262       .  A
N950        O953   1.262       .  A
N950        O954   1.262       .  A
C955        C956   1.402       .  A
C955        C960   1.412       .  A
C955        H962   1.083       .  S
C956        C957   1.420       .  A
C957        C958   1.382       .  A
C957        N964   1.435       .  S
C958        C959   1.397       .  A
C958        H963   1.084       .  S
C959        C960   1.422       .  A
C960        N961   1.437       .  S
N961        O965   1.263       .  A
N961        O966   1.262       .  A
N964        O967   1.262       .  A
N964        O968   1.262       .  A
C969        C970   1.406       .  A
C969        C974   1.406       .  A
C969        H976   1.082       .  S
C970        C971   1.423       .  A
C971        C972   1.414       .  A
C971        N978   1.449       .  S
C972        C973   1.409       .  A
C972        H977   1.083       .  S
C973        C974   1.413       .  A
C974        N975   1.437       .  S
N975        O979   1.263   1_544  A
N975        O980   1.263   1_545  A
N978        O981   1.261       .  A
N978        O982   1.263       .  A
C983        C984   1.403   1_554  A
C983        C988   1.404       .  A
C983        H990   1.084       .  S
C984        C985   1.409       .  A
C985        C986   1.407       .  A
C985        N992   1.439       .  S
C986        C987   1.412       .  A
C986        H991   1.081       .  S
C987        C988   1.418   1_556  A
C988        N989   1.437       .  S
N989        O993   1.263       .  A
N989        O994   1.263       .  A
N992        O995   1.262       .  A
N992        O996   1.263       .  A
C997        C998   1.403   1_554  A
C997       C1002   1.405   1_545  A
C997       H1004   1.084       .  S
C998        C999   1.408       .  A
C999       C1000   1.404   1_545  A
C999       N1006   1.443       .  S
C1000      C1001   1.415       .  A
C1000      H1005   1.082       .  S
C1001      C1002   1.417   1_556  A
C1002      N1003   1.437       .  S
N1003      O1007   1.263       .  A
N1003      O1008   1.263       .  A
N1006      O1009   1.262       .  A
N1006      O1010   1.263       .  A
C1011      C1012   1.406   1_556  A
C1011      C1016   1.403       .  A
C1011      H1018   1.083       .  S
C1012      C1013   1.435       .  A
C1013      C1014   1.407       .  A
C1013      N1020   1.442       .  S
C1014      C1015   1.392   1_554  A
C1014      H1019   1.084       .  S
C1015      C1016   1.410       .  A
C1016      N1017   1.437       .  S
N1017      O1021   1.262       .  A
N1017      O1022   1.263       .  A
N1020      O1023   1.260       .  A
N1020      O1024   1.262   1_554  A
C1025      C1026   1.400       .  A
C1025      C1030   1.391       .  A
C1025      H1032   1.084       .  S
C1026      C1027   1.421       .  A
C1027      C1028   1.411       .  A
C1027      N1034   1.434       .  S
C1028      C1029   1.403       .  A
C1028      H1033   1.080       .  S
C1029      C1030   1.419       .  A
C1030      N1031   1.435       .  S
N1031      O1035   1.262       .  A
N1031      O1036   1.262       .  A
N1034      O1037   1.261       .  A
N1034      O1038   1.262       .  A
C1039      C1040   1.405       .  A
C1039      C1044   1.387       .  A
C1039      H1046   1.084       .  S
C1040      C1041   1.416       .  A
C1041      C1042   1.410       .  A
C1041      N1048   1.434       .  S
C1042      C1043   1.408       .  A
C1042      H1047   1.083       .  S
C1043      C1044   1.414       .  A
C1044      N1045   1.435       .  S
N1045      O1049   1.262       .  A
N1045      O1050   1.262       .  A
N1048      O1051   1.260       .  A
N1048      O1052   1.263       .  A
C1053      C1054   1.408       .  A
C1053      C1058   1.393       .  A
C1053      H1060   1.085       .  S
C1054      C1055   1.413       .  A
C1055      C1056   1.410       .  A
C1055      N1062   1.436       .  S
C1056      C1057   1.408       .  A
C1056      H1061   1.084       .  S
C1057      C1058   1.405       .  A
C1058      N1059   1.435       .  S
N1059      O1063   1.262       .  A
N1059      O1064   1.262       .  A
N1062      O1065   1.262       .  A
N1062      O1066   1.262       .  A
C1067      C1068   1.405       .  A
C1067      C1072   1.417       .  A
C1067      H1074   1.083       .  S
C1068      C1069   1.419       .  A
C1069      C1070   1.393       .  A
C1069      N1076   1.436       .  S
C1070      C1071   1.404       .  A
C1070      H1075   1.084       .  S
C1071      C1072   1.425       .  A
C1072      N1073   1.436   1_455  S
N1073      O1077   1.262       .  A
N1073      O1078   1.261       .  A
N1076      O1079   1.262       .  A
N1076      O1080   1.262       .  A
C1081      C1082   1.401       .  A
C1081      C1086   1.411       .  A
C1081      H1088   1.079       .  S
C1082      C1083   1.408       .  A
C1083      C1084   1.391       .  A
C1083      N1090   1.424       .  S
C1084      C1085   1.397       .  A
C1084      H1089   1.084       .  S
C1085      C1086   1.420       .  A
C1086      N1087   1.431       .  S
N1087      O1091   1.262       .  A
N1087      O1092   1.261       .  A
N1090      O1093   1.261       .  A
N1090      O1094   1.262       .  A
C1095      C1096   1.402       .  A
C1095      C1100   1.396       .  A
C1095      H1102   1.084       .  S
C1096      C1097   1.427       .  A
C1097      C1098   1.414       .  A
C1097      N1104   1.435       .  S
C1098      C1099   1.401       .  A
C1098      H1103   1.084       .  S
C1099      C1100   1.414       .  A
C1100      N1101   1.431   1_455  S
N1101      O1105   1.262       .  A
N1101      O1106   1.262       .  A
N1104      O1107   1.262   1_545  A
N1104      O1108   1.263       .  A
C1109      C1110   1.401       .  A
C1109      C1114   1.403       .  A
C1109      H1116   1.084       .  S
C1110      C1111   1.416       .  A
C1111      C1112   1.407       .  A
C1111      N1118   1.434       .  S
C1112      C1113   1.406       .  A
C1112      H1117   1.084       .  S
C1113      C1114   1.414       .  A
C1114      N1115   1.433       .  S
N1115      O1119   1.263       .  A
N1115      O1120   1.261       .  A
N1118      O1121   1.262       .  A
N1118      O1122   1.262       .  A
C1123      C1124   1.403       .  A
C1123      C1128   1.401       .  A
C1123      H1130   1.084       .  S
C1124      C1125   1.422       .  A
C1125      C1126   1.406       .  A
C1125      N1132   1.437       .  S
C1126      C1127   1.402       .  A
C1126      H1131   1.084       .  S
C1127      C1128   1.411       .  A
C1128      N1129   1.431       .  S
N1129      O1133   1.263       .  A
N1129      O1134   1.261       .  A
N1132      O1135   1.262       .  A
N1132      O1136   1.263       .  A
C1137      C1138   1.406       .  A
C1137      C1142   1.408       .  A
C1137      H1144   1.072       .  S
C1138      C1139   1.407       .  A
C1139      C1140   1.397       .  A
C1139      N1146   1.425       .  S
C1140      C1141   1.397       .  A
C1140      H1145   1.084       .  S
C1141      C1142   1.407       .  A
C1142      N1143   1.436       .  S
N1143      O1147   1.261       .  A
N1143      O1148   1.263       .  A
N1146      O1149   1.260       .  A
N1146      O1150   1.263       .  A
C1151      C1152   1.405       .  A
C1151      C1156   1.391       .  A
C1151      H1158   1.081       .  S
C1152      C1153   1.417       .  A
C1153      C1154   1.416       .  A
C1153      N1160   1.435       .  S
C1154      C1155   1.412       .  A
C1154      H1159   1.083       .  S
C1155      C1156   1.415       .  A
C1156      N1157   1.436       .  S
N1157      O1161   1.263       .  A
N1157      O1162   1.262       .  A
N1160      O1163   1.262       .  A
N1160      O1164   1.262       .  A
C1165      C1166   1.410       .  A
C1165      C1170   1.383       .  A
C1165      H1172   1.083       .  S
C1166      C1167   1.422       .  A
C1167      C1168   1.416       .  A
C1167      N1174   1.439       .  S
C1168      C1169   1.408       .  A
C1168      H1173   1.083       .  S
C1169      C1170   1.408       .  A
C1170      N1171   1.435       .  S
N1171      O1175   1.262       .  A
N1171      O1176   1.263       .  A
N1174      O1177   1.261       .  A
N1174      O1178   1.263       .  A
C1179      C1180   1.406       .  A
C1179      C1184   1.414       .  A
C1179      H1186   1.079   1_565  S
C1180      C1181   1.403       .  A
C1181      C1182   1.384       .  A
C1181      N1188   1.430       .  S
C1182      C1183   1.406       .  A
C1182      H1187   1.084       .  S
C1183      C1184   1.416       .  A
C1184      N1185   1.435   1_565  S
N1185      O1189   1.262       .  A
N1185      O1190   1.262       .  A
N1188      O1191   1.261       .  A
N1188      O1192   1.262       .  A
C1193      C1194   1.402       .  A
C1193      C1198   1.400   1_655  A
C1193      H1200   1.084       .  S
C1194      C1195   1.423       .  A
C1195      C1196   1.408   1_655  A
C1195      N1202   1.434       .  S
C1196      C1197   1.401       .  A
C1196      H1201   1.084       .  S
C1197      C1198   1.410       .  A
C1198      N1199   1.426       .  S
N1199      O1203   1.262       .  A
N1199      O1204   1.260       .  A
N1202      O1205   1.262       .  A
N1202      O1206   1.262       .  A
C1207      C1208   1.408   1_565  A
C1207      C1212   1.407       .  A
C1207      H1214   1.084       .  S
C1208      C1209   1.420       .  A
C1209      C1210   1.407       .  A
C1209      N1216   1.443       .  S
C1210      C1211   1.406   1_545  A
C1210      H1215   1.083       .  S
C1211      C1212   1.418       .  A
C1212      N1213   1.444       .  S
N1213      O1217   1.263       .  A
N1213      O1218   1.260       .  A
N1216      O1219   1.262       .  A
N1216      O1220   1.263       .  A
C1221      C1222   1.407       .  A
C1221      C1226   1.416       .  A
C1221      H1228   1.083       .  S
C1222      C1223   1.411       .  A
C1223      C1224   1.379       .  A
C1223      N1230   1.432   1_565  S
C1224      C1225   1.402       .  A
C1224      H1229   1.084       .  S
C1225      C1226   1.423       .  A
C1226      N1227   1.436       .  S
N1227      O1231   1.262       .  A
N1227      O1232   1.260       .  A
N1230      O1233   1.261       .  A
N1230      O1234   1.263       .  A
C1235      C1236   1.405       .  A
C1235      C1240   1.406       .  A
C1235      H1242   1.084       .  S
C1236      C1237   1.409       .  A
C1237      C1238   1.403       .  A
C1237      N1244   1.433       .  S
C1238      C1239   1.406       .  A
C1238      H1243   1.084       .  S
C1239      C1240   1.414       .  A
C1240      N1241   1.441       .  S
N1241      O1245   1.263       .  A
N1241      O1246   1.263       .  A
N1244      O1247   1.262       .  A
N1244      O1248   1.263   1_655  A
C1249      C1250   1.408       .  A
C1249      C1254   1.418       .  A
C1249      H1256   1.083       .  S
C1250      C1251   1.406       .  A
C1251      C1252   1.385       .  A
C1251      N1258   1.420       .  S
C1252      C1253   1.389       .  A
C1252      H1257   1.083       .  S
C1253      C1254   1.415       .  A
C1254      N1255   1.437       .  S
N1255      O1259   1.262       .  A
N1255      O1260   1.262       .  A
N1258      O1261   1.262       .  A
N1258      O1262   1.256       .  A
C1263      C1264   1.408       .  A
C1263      C1268   1.404       .  A
C1263      H1270   1.081       .  S
C1264      C1265   1.422       .  A
C1265      C1266   1.405       .  A
C1265      N1272   1.433       .  S
C1266      C1267   1.402       .  A
C1266      H1271   1.083       .  S
C1267      C1268   1.402       .  A
C1268      N1269   1.418       .  S
N1269      O1273   1.262       .  A
N1269      O1274   1.261       .  A
N1272      O1275   1.261       .  A
N1272      O1276   1.262       .  A
C1277      C1278   1.400       .  A
C1277      C1282   1.409   1_655  A
C1277      H1284   1.084       .  S
C1278      C1279   1.412       .  A
C1279      C1280   1.401   1_655  A
C1279      N1286   1.425       .  S
C1280      C1281   1.401       .  A
C1280      H1285   1.084       .  S
C1281      C1282   1.422       .  A
C1282      N1283   1.431       .  S
N1283      O1287   1.262       .  A
N1283      O1288   1.262       .  A
N1286      O1289   1.261       .  A
N1286      O1290   1.262       .  A
C1291      C1292   1.403       .  A
C1291      C1296   1.406       .  A
C1291      H1298   1.083       .  S
C1292      C1293   1.400       .  A
C1293      C1294   1.398       .  A
C1293      N1300   1.436       .  S
C1294      C1295   1.414       .  A
C1294      H1299   1.083       .  S
C1295      C1296   1.418       .  A
C1296      N1297   1.437       .  S
N1297      O1301   1.262       .  A
N1297      O1302   1.262       .  A
N1300      O1303   1.263       .  A
N1300      O1304   1.261       .  A
C1305      C1306   1.403       .  A
C1305      C1310   1.403       .  A
C1305      H1312   1.085       .  S
C1306      C1307   1.406       .  A
C1307      C1308   1.402       .  A
C1307      N1314   1.435       .  S
C1308      C1309   1.406       .  A
C1308      H1313   1.083       .  S
C1309      C1310   1.418       .  A
C1310      N1311   1.433       .  S
N1311      O1315   1.262       .  A
N1311      O1316   1.261       .  A
N1314      O1317   1.262       .  A
N1314      O1318   1.262       .  A
C1319      C1320   1.406       .  A
C1319      C1324   1.403       .  A
C1319      H1326   1.084       .  S
C1320      C1321   1.417       .  A
C1321      C1322   1.415       .  A
C1321      N1328   1.440       .  S
C1322      C1323   1.410       .  A
C1322      H1327   1.083       .  S
C1323      C1324   1.412       .  A
C1324      N1325   1.429       .  S
N1325      O1329   1.261       .  A
N1325      O1330   1.262       .  A
N1328      O1331   1.262       .  A
N1328      O1332   1.262       .  A
C1333      C1334   1.407       .  A
C1333      C1338   1.416       .  A
C1333      H1340   1.084       .  S
C1334      C1335   1.405       .  A
C1335      C1336   1.381       .  A
C1335      N1342   1.429       .  S
C1336      C1337   1.403       .  A
C1336      H1341   1.085       .  S
C1337      C1338   1.418       .  A
C1338      N1339   1.436       .  S
N1339      O1343   1.263       .  A
N1339      O1344   1.262       .  A
N1342      O1345   1.260       .  A
N1342      O1346   1.262       .  A
C1347      C1348   1.406       .  A
C1347      C1352   1.412       .  A
C1347      H1354   1.084       .  S
C1348      C1349   1.412       .  A
C1349      C1350   1.393       .  A
C1349      N1356   1.434       .  S
C1350      C1351   1.398       .  A
C1350      H1355   1.084       .  S
C1351      C1352   1.417       .  A
C1352      N1353   1.445       .  S
N1353      O1357   1.263       .  A
N1353      O1358   1.262       .  A
N1356      O1359   1.262       .  A
N1356      O1360   1.261       .  A
