geometry optimzed in LAMMPS
_audit_creation_date              2020-11-30 
_audit_creation_method            'lammps2cif' 
_symmetry_space_group_name_H-M    'P1' 
_symmetry_Int_Tables_number       1 
_symmetry_cell_setting            triclinic 
loop_ 
_symmetry_equiv_pos_as_xyz 
  x,y,z 
_cell_length_a                    31.521812614390928 
_cell_length_b                    31.522546741468513 
_cell_length_c                    45.60878400590347 
_cell_angle_alpha                 89.98029110545912 
_cell_angle_beta                  90.07895332974437 
_cell_angle_gamma                 89.96559713842959 
loop_ 
_atom_site_label 
_atom_site_type_symbol 
_atom_site_fract_x 
_atom_site_fract_y 
_atom_site_fract_z 
_atom_site_charge 
C1          C  0.99967130  0.64352914  0.02687139     0.03140
C2          C  0.00088399  0.66504730  0.99999961    -0.13010
C3          C  0.00205805  0.64201772  0.97373944     0.00640
C4          C  0.00327887  0.59757766  0.97447348    -0.11540
C5          C  0.00237531  0.57579136  0.00132691     0.03130
C6          C  0.99919989  0.59909447  0.02742345    -0.10960
H7          H  0.00101360  0.69943172  0.99953055     0.08720
H8          H  0.00514871  0.57995661  0.95410507     0.06250
H9          H  0.99649810  0.58280986  0.04823941     0.06100
C10         C  0.66338285  0.98203734  0.97326657     0.03140
C11         C  0.68556953  0.98146066  0.99994688    -0.13010
C12         C  0.66319790  0.98173865  0.02651246     0.00640
C13         C  0.61874522  0.98248850  0.02632566    -0.11540
C14         C  0.59655219  0.98324569  0.99972885     0.03130
C15         C  0.61892798  0.98298441  0.97323387    -0.10960
H16         H  0.71995831  0.98108824  0.00003639     0.08720
H17         H  0.60143857  0.98290439  0.04685167     0.06250
H18         H  0.60175584  0.98367375  0.95262565     0.06100
C19         C  0.84673122  0.48106885  0.52654107     0.03140
C20         C  0.82460007  0.48075220  0.49983385    -0.13010
C21         C  0.84703944  0.48112125  0.47330190     0.00640
C22         C  0.89146200  0.48190422  0.47354091    -0.11540
C23         C  0.91368643  0.48268732  0.50014300     0.03130
C24         C  0.89120495  0.48185635  0.52661722    -0.10960
H25         H  0.79021151  0.48050187  0.49969960     0.08720
H26         H  0.90874256  0.48205220  0.45300313     0.06250
H27         H  0.90829588  0.48240448  0.54725864     0.06100
C28         C  0.50140614  0.82589878  0.47362438     0.03140
C29         C  0.50065495  0.80385755  0.50035313    -0.13010
C30         C  0.50075231  0.82637566  0.52688366     0.00640
C31         C  0.50157594  0.87081768  0.52660794    -0.11540
C32         C  0.50237577  0.89286394  0.49997278     0.03130
C33         C  0.50218383  0.87036159  0.47351586    -0.10960
H34         H  0.50040553  0.76947022  0.50050851     0.08720
H35         H  0.50206485  0.88823809  0.54709985     0.06250
H36         H  0.50309213  0.88742843  0.45288389     0.06100
C37         C  0.50965056  0.14230770  0.47348282     0.03140
C38         C  0.50886102  0.09785531  0.47348032    -0.13010
C39         C  0.50814401  0.07546538  0.49998346     0.00640
C40         C  0.50838571  0.09762518  0.52657218    -0.11540
C41         C  0.50912734  0.14207833  0.52673525     0.03130
C42         C  0.50979620  0.16447356  0.50015187    -0.10960
H43         H  0.50833323  0.08070110  0.45288280     0.08720
H44         H  0.50753618  0.08029479  0.54710123     0.06250
H45         H  0.51001923  0.19886200  0.50021587     0.06100
C46         C  0.16401772  0.48694821  0.52684031     0.03140
C47         C  0.11958073  0.48613974  0.52709910    -0.13010
C48         C  0.09674337  0.48549735  0.50073682     0.00640
C49         C  0.11861228  0.48642767  0.47402558    -0.11540
C50         C  0.16306482  0.48721550  0.47360324     0.03130
C51         C  0.18582509  0.48742856  0.50005522    -0.10960
H52         H  0.10277856  0.48593818  0.54782410     0.08720
H53         H  0.10104717  0.48597692  0.45357222     0.06250
H54         H  0.22021120  0.48769959  0.49979736     0.06100
N55         N  0.74289189  0.05107003  0.80106059    -0.27280
N56         N  0.73172013  0.07071772  0.82548907    -0.35140
C57         C  0.73060395  0.11273474  0.82059697     0.01060
C58         C  0.74189634  0.11996155  0.79179469     0.07080
C59         C  0.74956672  0.08024825  0.78000722    -0.06020
H60         H  0.72264286  0.13628777  0.83694417     0.07750
H61         H  0.75905321  0.07305208  0.75776836     0.08950
Cu62       Cu  0.71914267  0.04051912  0.86478690     0.44170
Cu63       Cu  0.74720549  0.98547853  0.79727564     0.41990
Cu64       Cu  0.71989646  0.92738170  0.86376867     0.43880
N65         N  0.70682992  0.00413749  0.90153357    -0.34670
N66         N  0.70704249  0.96222954  0.90120839    -0.28920
C67         C  0.69433371  0.94783494  0.92753779    -0.05020
C68         C  0.68616870  0.98242264  0.94526895     0.07190
C69         C  0.69399373  0.01759050  0.92804551     0.00990
H70         H  0.68898828  0.91479468  0.93279393     0.08640
H71         H  0.68832587  0.05041456  0.93377078     0.07720
N72         N  0.73313402  0.89901449  0.82385529    -0.36120
N73         N  0.74405818  0.91969608  0.79977534    -0.28300
C74         C  0.75113464  0.89138642  0.77819655    -0.03540
C75         C  0.74395456  0.85115649  0.78929192     0.05070
C76         C  0.73257303  0.85721326  0.81821166     0.03170
H77         H  0.76044177  0.89952386  0.75607484     0.08270
H78         H  0.72482141  0.83297502  0.83412878     0.07110
O79         O  0.79502387  0.25847412  0.79007266    -0.72940
O80         O  0.68132235  0.24400592  0.75137718    -0.73920
O81         O  0.73215797  0.19458738  0.79012619    -0.62540
O82         O  0.74474245  0.30839069  0.75120802    -0.70950
O83         O  0.77556837  0.27696698  0.71321313    -0.70500
O84         O  0.76302864  0.16362631  0.75196462    -0.61750
O85         O  0.71290510  0.21340252  0.71335587    -0.74260
O86         O  0.82624406  0.22784172  0.75192039    -0.73040
Cu87       Cu  0.73719720  0.25247310  0.77205081     1.04560
Cu88       Cu  0.77052820  0.21938563  0.73131663     1.04330
C89         C  0.82844616  0.24523136  0.77716590     0.93260
C90         C  0.67937254  0.22661479  0.72611032     0.92400
C91         C  0.74577563  0.16128529  0.77722691     0.84550
C92         C  0.76194059  0.31040411  0.72588464     0.90820
O93         O  0.73442911  0.77675439  0.78687788    -0.72940
O94         O  0.74719033  0.66346996  0.74794978    -0.73920
O95         O  0.79718825  0.71319164  0.78671167    -0.62540
O96         O  0.68386977  0.72763714  0.74818169    -0.70950
O97         O  0.71499337  0.75838652  0.71003448    -0.70500
O98         O  0.82877375  0.74390872  0.74873850    -0.61750
O99         O  0.77801332  0.69457152  0.70982857    -0.74260
O100        O  0.76519757  0.80823406  0.74888420    -0.73040
Cu101      Cu  0.73959147  0.71917417  0.76872344     1.04560
Cu102      Cu  0.77286657  0.75238043  0.72801683     1.04330
C103        C  0.74796657  0.81022437  0.77419529     0.93260
C104        C  0.76438598  0.66122276  0.72265594     0.92400
C105        C  0.83071011  0.72651810  0.77402276     0.84550
C106        C  0.68160677  0.74511859  0.72296810     0.90820
N107        N  0.07141117  0.72010840  0.80115573    -0.27280
N108        N  0.09102674  0.70877021  0.82559414    -0.35140
C109        C  0.13303810  0.70748568  0.82073396     0.01060
C110        C  0.14027650  0.71882274  0.79193462     0.07080
C111        C  0.10058852  0.72670758  0.78012509    -0.06020
H112        H  0.15658041  0.69947461  0.83711414     0.07750
H113        H  0.09341433  0.73640079  0.75790579     0.08950
Cu114      Cu  0.06075142  0.69632649  0.86485571     0.44170
Cu115      Cu  0.00587889  0.72490175  0.79734017     0.41990
Cu116      Cu  0.94760035  0.69782039  0.86379315     0.43880
N117        N  0.02435103  0.68416996  0.90157847    -0.34670
N118        N  0.98244183  0.68472110  0.90125826    -0.28920
C119        C  0.96802873  0.67232723  0.92765245    -0.05020
C120        C  0.00261849  0.66395462  0.94539091     0.07190
C121        C  0.03779374  0.67138712  0.92813790     0.00990
H122        H  0.93494899  0.66747415  0.93299088     0.08640
H123        H  0.07060598  0.66569746  0.93392707     0.07720
N124        N  0.91936824  0.71116361  0.82380085    -0.36120
N125        N  0.94011844  0.72202657  0.79974743    -0.28300
C126        C  0.91187393  0.72922286  0.77810771    -0.03540
C127        C  0.87161512  0.72216793  0.78913529     0.05070
C128        C  0.87757931  0.71075491  0.81807730     0.03170
H129        H  0.92007491  0.73855522  0.75600084     0.08270
H130        H  0.85328471  0.70312630  0.83396305     0.07110
O131        O  0.24711145  0.80436594  0.75244459    -0.72940
O132        O  0.23438925  0.69106377  0.71362931    -0.73920
O133        O  0.18381729  0.74032671  0.75219227    -0.62540
O134        O  0.29708133  0.75462178  0.71382985    -0.70950
O135        O  0.32880066  0.72396361  0.75184580    -0.70500
O136        O  0.21498851  0.70959203  0.79039886    -0.61750
O137        O  0.26524482  0.65960289  0.75167089    -0.74260
O138        O  0.27800402  0.77330776  0.79063287    -0.73040
Cu139      Cu  0.23952097  0.74866141  0.73172690     1.04560
Cu140      Cu  0.27288182  0.71549414  0.77249436     1.04330
C141        C  0.26435124  0.80663674  0.77775117     0.93260
C142        C  0.24797922  0.65760285  0.72634101     0.92400
C143        C  0.18158922  0.72296574  0.77743948     0.84550
C144        C  0.33066603  0.74141759  0.72658031     0.90820
N145        N  0.06992547  0.24690964  0.79894979    -0.27280
N146        N  0.09074032  0.25771387  0.82300634    -0.35140
C147        C  0.13252267  0.25773128  0.81745012     0.01060
C148        C  0.13845186  0.24608966  0.78858999     0.07080
C149        C  0.09816018  0.23934867  0.77741994    -0.06020
H150        H  0.15682529  0.26515175  0.83341907     0.07750
H151        H  0.08995017  0.22991137  0.75532577     0.08950
Cu152      Cu  0.06266302  0.27088848  0.86284001     0.44170
Cu153      Cu  0.00414421  0.24433098  0.79675355     0.41990
Cu154      Cu  0.94955725  0.27161162  0.86486297     0.43880
N155        N  0.02876220  0.28241295  0.90069673    -0.34670
N156        N  0.98687592  0.28244427  0.90152548    -0.28920
C157        C  0.97420351  0.29429439  0.92843336    -0.05020
C158        C  0.00987171  0.30168293  0.94532899     0.07190
C159        C  0.04391675  0.29434936  0.92699903     0.00990
H160        H  0.94156177  0.29994003  0.93463151     0.08640
H161        H  0.07706957  0.29989792  0.93182527     0.07720
N162        N  0.91912053  0.25978302  0.82541074    -0.36120
N163        N  0.93866615  0.24885578  0.80088744    -0.28300
C164        C  0.90943674  0.24221295  0.77985371    -0.03540
C165        C  0.86976237  0.24962999  0.79170690     0.05070
C166        C  0.87706079  0.26077669  0.82055949     0.03170
H167        H  0.91657596  0.23275685  0.75759831     0.08270
H168        H  0.85352146  0.26836235  0.83699096     0.07110
O169        O  0.27563236  0.19088808  0.78686369    -0.72940
O170        O  0.26297034  0.30423186  0.74810331    -0.73920
O171        O  0.21292006  0.25446544  0.78655318    -0.62540
O172        O  0.32629492  0.24010207  0.74829085    -0.70950
O173        O  0.29510829  0.20946355  0.71008208    -0.70500
O174        O  0.18133818  0.22389669  0.74847017    -0.61750
O175        O  0.23214525  0.27329673  0.70986828    -0.74260
O176        O  0.24482340  0.15949149  0.74880758    -0.73040
Cu177      Cu  0.27054455  0.24848313  0.76875628     1.04560
Cu178      Cu  0.23724867  0.21541571  0.72795120     1.04330
C179        C  0.26200530  0.15746349  0.77416839     0.93260
C180        C  0.24570846  0.30658860  0.72281079     0.92400
C181        C  0.17938856  0.24133913  0.77371451     0.84550
C182        C  0.32850603  0.22278491  0.72302809     0.90820
N183        N  0.26690623  0.91677190  0.80168270    -0.27280
N184        N  0.27813475  0.89714083  0.82613925    -0.35140
C185        C  0.27939003  0.85512603  0.82122825     0.01060
C186        C  0.26814174  0.84791389  0.79238737     0.07080
C187        C  0.26034198  0.88761328  0.78060832    -0.06020
H188        H  0.28742366  0.83156578  0.83758022     0.07750
H189        H  0.25084537  0.89482082  0.75835216     0.08950
Cu190      Cu  0.29067526  0.92742047  0.86546973     0.44170
Cu191      Cu  0.26239323  0.98231373  0.79775620     0.41990
Cu192      Cu  0.28974612  0.04061401  0.86399911     0.43880
N193        N  0.30305361  0.96417986  0.90208022    -0.34670
N194        N  0.30279219  0.00608498  0.90154120    -0.28920
C195        C  0.31562505  0.02078195  0.92777366    -0.05020
C196        C  0.32390933  0.98640787  0.94569014     0.07190
C197        C  0.31602976  0.95103488  0.92866814     0.00990
H198        H  0.32096549  0.05388460  0.93283624     0.08640
H199        H  0.32178107  0.91828305  0.93457520     0.07720
N200        N  0.27648531  0.06885142  0.82405087    -0.36120
N201        N  0.26552970  0.04808801  0.80000686    -0.28300
C202        C  0.25854388  0.07631385  0.77833392    -0.03540
C203        C  0.26583523  0.11656928  0.78934605     0.05070
C204        C  0.27716024  0.11061656  0.81830768     0.03170
H205        H  0.24926162  0.06810175  0.75620741     0.08270
H206        H  0.28498846  0.13489815  0.83417842     0.07110
N207        N  0.24273720  0.41683588  0.69909873    -0.27280
N208        N  0.23158103  0.39727376  0.67461619    -0.35140
C209        C  0.23046954  0.35524075  0.67945350     0.01060
C210        C  0.24175526  0.34793048  0.70827246     0.07080
C211        C  0.24940410  0.38759820  0.72012621    -0.06020
H212        H  0.22255447  0.33173439  0.66305516     0.07750
H213        H  0.25890111  0.39472472  0.74238966     0.08950
Cu214      Cu  0.21916642  0.42761408  0.63530233     0.44170
Cu215      Cu  0.24714240  0.48238530  0.70304027     0.41990
Cu216      Cu  0.22014531  0.54072996  0.63661358     0.43880
N217        N  0.20733994  0.46426052  0.59855914    -0.34670
N218        N  0.20763527  0.50616220  0.59900732    -0.28920
C219        C  0.19516831  0.52077175  0.57265384    -0.05020
C220        C  0.18711993  0.48633586  0.55475236     0.07190
C221        C  0.19469687  0.45103187  0.57193031     0.00990
H222        H  0.18979018  0.55385338  0.56750895     0.08640
H223        H  0.18885934  0.41827683  0.56610542     0.07720
N224        N  0.23322798  0.56893548  0.67659558    -0.36120
N225        N  0.24408295  0.54817489  0.70068071    -0.28300
C226        C  0.25113105  0.57642212  0.72231341    -0.03540
C227        C  0.24399205  0.61668757  0.71123243     0.05070
C228        C  0.23267371  0.61071653  0.68227754     0.03170
H229        H  0.26038568  0.56822138  0.74445380     0.08270
H230        H  0.22498283  0.63500073  0.66635866     0.07110
N231        N  0.56986495  0.22172982  0.70068992    -0.27280
N232        N  0.59055848  0.21092287  0.67661013    -0.35140
C233        C  0.63236811  0.21063807  0.68221856     0.01060
C234        C  0.63841714  0.22209660  0.71112460     0.07080
C235        C  0.59818109  0.22902229  0.72225764    -0.06020
H236        H  0.65661054  0.20311564  0.66626799     0.07750
H237        H  0.59005440  0.23837386  0.74437121     0.08950
Cu238      Cu  0.56221854  0.19774658  0.63672684     0.44170
Cu239      Cu  0.50410877  0.22451977  0.70305581     0.41990
Cu240      Cu  0.44909993  0.19636680  0.63529336     0.43880
N241        N  0.52775326  0.18512095  0.59912558    -0.34670
N242        N  0.48585181  0.18461049  0.59858516    -0.28920
C243        C  0.47278325  0.17197471  0.57190774    -0.05020
C244        C  0.50820593  0.16462656  0.55483319     0.07190
C245        C  0.54252738  0.17283681  0.57281356     0.00990
H246        H  0.44007034  0.16611465  0.56595038     0.08640
H247        H  0.57566713  0.16778484  0.56773196     0.07720
N248        N  0.41893500  0.20863138  0.67470254    -0.36120
N249        N  0.43860386  0.21980949  0.69915319    -0.28300
C250        C  0.40949085  0.22636931  0.72023354    -0.03540
C251        C  0.36977616  0.21862598  0.70846804     0.05070
C252        C  0.37693109  0.20741186  0.67962938     0.03170
H253        H  0.41673476  0.23594251  0.74246061     0.08270
H254        H  0.35332899  0.19954114  0.66326793     0.07110
N255        N  0.57132474  0.74904836  0.69941561    -0.27280
N256        N  0.59083871  0.76023834  0.67494471    -0.35140
C257        C  0.63289836  0.76110995  0.67973683     0.01060
C258        C  0.64025274  0.74962609  0.70851221     0.07080
C259        C  0.60060024  0.74212540  0.72038548    -0.06020
H260        H  0.65639073  0.76889273  0.66331982     0.07750
H261        H  0.59351384  0.73243987  0.74260481     0.08950
Cu262      Cu  0.56037718  0.77271790  0.63567474     0.44170
Cu263      Cu  0.50582827  0.74457773  0.70340752     0.41990
Cu264      Cu  0.44721789  0.77143303  0.63707029     0.43880
N265        N  0.52357769  0.78430846  0.59895418    -0.34670
N266        N  0.48167365  0.78397201  0.59942580    -0.28920
C267        C  0.46699001  0.79611988  0.57301308    -0.05020
C268        C  0.50138745  0.80399091  0.55506286     0.07190
C269        C  0.53673489  0.79663170  0.57225666     0.00990
H270        H  0.43388029  0.80125900  0.56781757     0.08640
H271        H  0.56948407  0.80229085  0.56635783     0.07720
N272        N  0.41916150  0.75782733  0.67701399    -0.36120
N273        N  0.44004608  0.74703214  0.70106721    -0.28300
C274        C  0.41189651  0.73941870  0.72264511    -0.03540
C275        C  0.37154871  0.74610748  0.71156112     0.05070
C276        C  0.37737816  0.75777066  0.68266538     0.03170
H277        H  0.42021473  0.73003483  0.74473791     0.08270
H278        H  0.35299523  0.76523822  0.66675611     0.07110
N279        N  0.76688257  0.55111095  0.69857772    -0.27280
N280        N  0.77807603  0.57077866  0.67415403    -0.35140
C281        C  0.77934508  0.61278560  0.67912214     0.01060
C282        C  0.76814582  0.61995640  0.70796542     0.07080
C283        C  0.76035654  0.58022968  0.71968155    -0.06020
H284        H  0.78736239  0.63637488  0.66280841     0.07750
H285        H  0.75089715  0.57297600  0.74191878     0.08950
Cu286      Cu  0.79058175  0.54049349  0.63479972     0.44170
Cu287      Cu  0.76239484  0.48555863  0.70240338     0.41990
Cu288      Cu  0.78973960  0.42726338  0.63611394     0.43880
N289        N  0.80299730  0.50379321  0.59814313    -0.34670
N290        N  0.80276302  0.46188368  0.59861588    -0.28920
C291        C  0.81559197  0.44726457  0.57237430    -0.05020
C292        C  0.82386219  0.48169392  0.55452068     0.07190
C293        C  0.81595729  0.51701103  0.57159358     0.00990
H294        H  0.82092977  0.41417356  0.56726415     0.08640
H295        H  0.82165753  0.54978080  0.56574143     0.07720
N296        N  0.77648998  0.39902686  0.67605475    -0.36120
N297        N  0.76554263  0.41978609  0.70008947    -0.28300
C298        C  0.75853929  0.39155512  0.72173737    -0.03540
C299        C  0.76580239  0.35129814  0.71072480     0.05070
C300        C  0.77714104  0.35725442  0.68178732     0.03170
H301        H  0.74925586  0.39976579  0.74384864     0.08270
H302        H  0.78495255  0.33296877  0.66592343     0.07110
C303        C  0.34685647  0.98714061  0.97366126     0.03140
C304        C  0.39132104  0.98676071  0.97358327    -0.13010
C305        C  0.41384438  0.98627697  0.00005381     0.00640
C306        C  0.39179341  0.98649557  0.02667615    -0.11540
C307        C  0.34734141  0.98705711  0.02690672     0.03130
C308        C  0.32481810  0.98732288  0.00036110    -0.10960
H309        H  0.40837611  0.98636499  0.95295735     0.08720
H310        H  0.40922181  0.98597258  0.04718451     0.06250
H311        H  0.29042809  0.98739546  0.00047929     0.06100
C312        C  0.00819817  0.32534546  0.02639415     0.03140
C313        C  0.00686388  0.36980206  0.02595749    -0.13010
C314        C  0.00781074  0.39195701  0.99924750     0.00640
C315        C  0.01119658  0.36903375  0.97301130    -0.11540
C316        C  0.01082295  0.32460418  0.97325642     0.03130
C317        C  0.00953940  0.30269494  0.99997574    -0.10960
H318        H  0.00485579  0.38714046  0.04643426     0.08720
H319        H  0.01393758  0.38562463  0.95231155     0.06250
H320        H  0.00947323  0.26830558  0.00020505     0.06100
N321        N  0.94086141  0.72395097  0.20064640    -0.27280
N322        N  0.92002659  0.71303791  0.17662035    -0.35140
C323        C  0.87825965  0.71272149  0.18224896     0.01060
C324        C  0.87233404  0.72426685  0.21113073     0.07080
C325        C  0.91263561  0.73128137  0.22223061    -0.06020
H326        H  0.85396345  0.70501752  0.16633992     0.07750
H327        H  0.92086271  0.74061813  0.24434204     0.08950
Cu328      Cu  0.94809488  0.69966721  0.13680257     0.44170
Cu329      Cu  0.00671046  0.72664441  0.20274575     0.41990
Cu330      Cu  0.06124295  0.69883120  0.13467156     0.43880
N331        N  0.98193419  0.68730924  0.09903383    -0.34670
N332        N  0.02382157  0.68723220  0.09816037    -0.28920
C333        C  0.03642680  0.67470688  0.07138117    -0.05020
C334        C  0.00071442  0.66690359  0.05462173     0.07190
C335        C  0.96671376  0.67472956  0.07289212     0.00990
H336        H  0.06905323  0.66892563  0.06520438     0.08640
H337        H  0.93354403  0.66911770  0.06815801     0.07720
N338        N  0.09174837  0.71085073  0.17408414    -0.36120
N339        N  0.07223843  0.72193061  0.19859123    -0.28300
C340        C  0.10149711  0.72832690  0.21964917    -0.03540
C341        C  0.14114649  0.72057799  0.20783856     0.05070
C342        C  0.13379839  0.70951370  0.17897368     0.03170
H343        H  0.09438771  0.73770779  0.24192410     0.08270
H344        H  0.15729520  0.70160320  0.16258610     0.07110
O345        O  0.18475041  0.74150953  0.24781321    -0.72940
O346        O  0.29799392  0.75388974  0.28692373    -0.73920
O347        O  0.24900232  0.80465112  0.24822429    -0.62540
O348        O  0.23425754  0.69137016  0.28659021    -0.70950
O349        O  0.26491401  0.65965485  0.24864526    -0.70500
O350        O  0.27972362  0.77346285  0.21009244    -0.61750
O351        O  0.32944829  0.72302581  0.24895739    -0.74260
O352        O  0.21578523  0.71061222  0.20969446    -0.73040
Cu353      Cu  0.24042647  0.74893652  0.26868079     1.04560
Cu354      Cu  0.27358722  0.71556598  0.22799417     1.04330
C355        C  0.18246177  0.72430331  0.22251070     0.93260
C356        C  0.33144883  0.74025437  0.27428123     0.92400
C357        C  0.26647008  0.80687960  0.22302984     0.84550
C358        C  0.24740902  0.65778313  0.27387419     0.90820
O359        O  0.76479049  0.80897960  0.25152329    -0.72940
O360        O  0.77970131  0.69521288  0.29011382    -0.73920
O361        O  0.82936189  0.74564503  0.25144696    -0.62540
O362        O  0.71563370  0.75800038  0.29036203    -0.70950
O363        O  0.68461407  0.72708417  0.25220156    -0.70500
O364        O  0.79796801  0.71479761  0.21340192    -0.61750
O365        O  0.74905147  0.66401707  0.25191158    -0.74260
O366        O  0.73416241  0.77729331  0.21351144    -0.73040
Cu367      Cu  0.77346244  0.75309370  0.27221708     1.04560
Cu368      Cu  0.74035931  0.71972582  0.23145810     1.04330
C369        C  0.74739297  0.81085538  0.22622606     0.93260
C370        C  0.76660740  0.66178517  0.27711016     0.92400
C371        C  0.83140257  0.72837019  0.22614933     0.84550
C372        C  0.68232695  0.74423447  0.27752113     0.90820
N373        N  0.74098414  0.05145874  0.19901814    -0.27280
N374        N  0.72979397  0.07109903  0.17456158    -0.35140
C375        C  0.72868091  0.11311694  0.17944335     0.01060
C376        C  0.73999673  0.12031258  0.20826817     0.07080
C377        C  0.74766939  0.08060915  0.22007344    -0.06020
H378        H  0.72085755  0.13669303  0.16305385     0.07750
H379        H  0.75731083  0.07340434  0.24230053     0.08950
Cu380      Cu  0.71753922  0.04083538  0.13521987     0.44170
Cu381      Cu  0.74559956  0.98595323  0.20286037     0.41990
Cu382      Cu  0.71873196  0.92762931  0.13645755     0.43880
N383        N  0.70581814  0.00423108  0.09846971    -0.34670
N384        N  0.70615828  0.96232455  0.09888986    -0.28920
C385        C  0.69380803  0.94778085  0.07250292    -0.05020
C386        C  0.68577172  0.98226774  0.05462659     0.07190
C387        C  0.69327539  0.01753074  0.07182634     0.00990
H388        H  0.68860500  0.91470460  0.06729241     0.08640
H389        H  0.68754954  0.05031143  0.06598364     0.07720
N390        N  0.73190206  0.89941920  0.17645016    -0.36120
N391        N  0.74271651  0.92021217  0.20051397    -0.28300
C392        C  0.74992699  0.89201309  0.22216159    -0.03540
C393        C  0.74293298  0.85173280  0.21112299     0.05070
C394        C  0.73153851  0.85763953  0.18216650     0.03170
H395        H  0.75926157  0.90025638  0.24427219     0.08270
H396        H  0.72399390  0.83331493  0.16626186     0.07110
O397        O  0.73108562  0.19502414  0.20983350    -0.72940
O398        O  0.74593820  0.30877466  0.24832161    -0.73920
O399        O  0.79509458  0.25773555  0.20958846    -0.62540
O400        O  0.68133058  0.24540687  0.24861842    -0.70950
O401        O  0.71287090  0.21454222  0.28662295    -0.70500
O402        O  0.82608251  0.22681050  0.24779116    -0.61750
O403        O  0.77659566  0.27708940  0.28635303    -0.74260
O404        O  0.76180640  0.16378223  0.24801965    -0.73040
Cu405      Cu  0.73723944  0.25286738  0.22773475     1.04560
Cu406      Cu  0.77040337  0.21948359  0.26849520     1.04330
C407        C  0.74436191  0.16159866  0.22278031     0.93260
C408        C  0.76348113  0.31067127  0.27356365     0.92400
C409        C  0.82839158  0.24396507  0.22247858     0.84550
C410        C  0.67938105  0.22813037  0.27394044     0.90820
N411        N  0.27001331  0.91712144  0.19940701    -0.27280
N412        N  0.28116681  0.89754142  0.17494889    -0.35140
C413        C  0.28222313  0.85550440  0.17978320     0.01060
C414        C  0.27089946  0.84821925  0.20857534     0.07080
C415        C  0.26329216  0.88790132  0.22041513    -0.06020
H416        H  0.28999903  0.83197485  0.16337748     0.07750
H417        H  0.25365837  0.89504134  0.24263244     0.08950
Cu418      Cu  0.29339618  0.92787469  0.13563950     0.44170
Cu419      Cu  0.26544169  0.98264532  0.20329252     0.41990
Cu420      Cu  0.29223752  0.04101491  0.13687801     0.43880
N421        N  0.30504456  0.96447611  0.09888426    -0.34670
N422        N  0.30471469  0.00638090  0.09930568    -0.28920
C423        C  0.31696644  0.02094659  0.07291959    -0.05020
C424        C  0.32493107  0.98647362  0.05504290     0.07190
C425        C  0.31748578  0.95119578  0.07224164     0.00990
H426        H  0.32213423  0.05402913  0.06770435     0.08640
H427        H  0.32316665  0.91841873  0.06639615     0.07720
N428        N  0.27904151  0.06919801  0.17683598    -0.36120
N429        N  0.26825003  0.04841112  0.20089823    -0.28300
C430        C  0.26094081  0.07663448  0.22249039    -0.03540
C431        C  0.26783617  0.11691789  0.21141187     0.05070
C432        C  0.27929287  0.11098712  0.18249842     0.03170
H433        H  0.25158598  0.06840898  0.24458697     0.08270
H434        H  0.28678280  0.13530406  0.16657826     0.07110
N435        N  0.93853347  0.24570845  0.19856361    -0.27280
N436        N  0.91893434  0.25704228  0.17411584    -0.35140
C437        C  0.87693709  0.25861108  0.17901730     0.01060
C438        C  0.86968387  0.24747387  0.20785486     0.07080
C439        C  0.90935339  0.23939611  0.21963804    -0.06020
H440        H  0.85341812  0.26680168  0.16266338     0.07750
H441        H  0.91652246  0.22988424  0.24189533     0.08950
Cu442      Cu  0.94924449  0.26945679  0.13484809     0.44170
Cu443      Cu  0.00408657  0.24081126  0.20240241     0.41990
Cu444      Cu  0.06243621  0.26797142  0.13602061     0.43880
N445        N  0.98573655  0.28204986  0.09822487    -0.34670
N446        N  0.02764738  0.28149655  0.09858632    -0.28920
C447        C  0.04211678  0.29431096  0.07230066    -0.05020
C448        C  0.00756844  0.30297962  0.05458933     0.07190
C449        C  0.97235475  0.29526038  0.07174797     0.00990
H450        H  0.07520699  0.29926699  0.06703905     0.08880
H451        H  0.93955670  0.30105711  0.06597079     0.07720
N452        N  0.09065725  0.25461871  0.17603312    -0.36120
N453        N  0.06988201  0.24375292  0.20007622    -0.28300
C454        C  0.09810036  0.23679310  0.22177607    -0.03540
C455        C  0.13836926  0.24401063  0.21080143     0.05070
C456        C  0.13242887  0.25526361  0.18182332     0.03170
H457        H  0.08986838  0.22762044  0.24390920     0.08270
H458        H  0.15672773  0.26306009  0.16597975     0.07110
O459        O  0.32596600  0.24149836  0.25242578    -0.72940
O460        O  0.21268057  0.25394762  0.21342780    -0.73920
O461        O  0.26161536  0.30466491  0.25217239    -0.62540
O462        O  0.27641808  0.19139641  0.21371729    -0.70950
O463        O  0.24582871  0.15968571  0.25169147    -0.70500
O464        O  0.23098534  0.27338136  0.29030034    -0.61750
O465        O  0.18126779  0.22303939  0.25139260    -0.74260
O466        O  0.29504119  0.21053654  0.29056386    -0.73040
Cu467      Cu  0.27024669  0.24897046  0.23164797     1.04560
Cu468      Cu  0.23717201  0.21554450  0.27234646     1.04330
C469        C  0.32833015  0.22420043  0.27769817     0.93260
C470        C  0.17925274  0.24024309  0.22604719     0.92400
C471        C  0.24414781  0.30683597  0.27737558     0.84550
C472        C  0.26325001  0.15781724  0.22643956     0.90820
N473        N  0.43863692  0.22133029  0.30141094    -0.27280
N474        N  0.41915918  0.21008444  0.32588542    -0.35140
C475        C  0.37710295  0.20894000  0.32106729     0.01060
C476        C  0.36969618  0.22029553  0.29226815     0.07080
C477        C  0.40933136  0.22801721  0.28041677    -0.06020
H478        H  0.35364835  0.20093710  0.33745951     0.07750
H479        H  0.41639140  0.23757788  0.25816786     0.08950
Cu480      Cu  0.44971898  0.19755834  0.36513501     0.44170
Cu481      Cu  0.50417676  0.22592054  0.29740274     0.41990
Cu482      Cu  0.56292379  0.19888067  0.36364663     0.43880
N483        N  0.48663069  0.18550917  0.40175196    -0.34670
N484        N  0.52853570  0.18585834  0.40123776    -0.28920
C485        C  0.54328702  0.17327787  0.42753572    -0.05020
C486        C  0.50893622  0.16509292  0.44545781     0.07190
C487        C  0.47354373  0.17274397  0.42836847     0.00990
H488        H  0.57640991  0.16805430  0.43265093     0.08640
H489        H  0.44081141  0.16697799  0.43426179     0.07720
N490        N  0.59092887  0.21259734  0.32370639    -0.36120
N491        N  0.57001513  0.22343087  0.29967246    -0.28300
C492        C  0.59815004  0.23086151  0.27804715    -0.03540
C493        C  0.63851035  0.22400789  0.28908126     0.05070
C494        C  0.63269806  0.21244836  0.31799873     0.03170
H495        H  0.58980942  0.24011683  0.25593276     0.08270
H496        H  0.65708267  0.20478606  0.33386273     0.07110
N497        N  0.23994726  0.41706549  0.30096221    -0.27280
N498        N  0.22882700  0.39745738  0.32542249    -0.35140
C499        C  0.22805761  0.35540618  0.32061362     0.01060
C500        C  0.23953663  0.34815483  0.29183974     0.07080
C501        C  0.24692697  0.38786816  0.27998785    -0.06020
H502        H  0.22035357  0.33184549  0.33701950     0.07750
H503        H  0.25658197  0.39504786  0.25777947     0.08950
Cu504      Cu  0.21633118  0.42783234  0.36470629     0.44170
Cu505      Cu  0.24425896  0.48259014  0.29701367     0.41990
Cu506      Cu  0.21740167  0.54103251  0.36334795     0.43880
N507        N  0.20476742  0.46454463  0.40145165    -0.34670
N508        N  0.20504545  0.50645134  0.40097984    -0.28920
C509        C  0.19299006  0.52106690  0.42739833    -0.05020
C510        C  0.18521863  0.48662817  0.44535705     0.07190
C511        C  0.19256670  0.45132049  0.42816580     0.00990
H512        H  0.18786647  0.55416215  0.43259837     0.08640
H513        H  0.18701618  0.41855050  0.43408684     0.07720
N514        N  0.23090172  0.56918483  0.32341311    -0.36120
N515        N  0.24170485  0.54836195  0.29937342    -0.28300
C516        C  0.24931712  0.57656544  0.27780873    -0.03540
C517        C  0.24262027  0.61688022  0.28888404     0.05070
C518        C  0.23094948  0.61098252  0.31776369     0.03170
H519        H  0.25874011  0.56830662  0.25573420     0.08270
H520        H  0.22350902  0.63532659  0.33366995     0.07110
N521        N  0.77126599  0.55146237  0.30043811    -0.27280
N522        N  0.78239068  0.57099773  0.32493655    -0.35140
C523        C  0.78302107  0.61306666  0.32021637     0.01060
C524        C  0.77142972  0.62041488  0.29146243     0.07080
C525        C  0.76414098  0.58074251  0.27951691    -0.06020
H526        H  0.79065001  0.63656931  0.33668168     0.07750
H527        H  0.75441280  0.57365139  0.25729543     0.08950
Cu528      Cu  0.79482542  0.54060113  0.36421156     0.44170
Cu529      Cu  0.76698084  0.48593986  0.29641570     0.41990
Cu530      Cu  0.79343201  0.42751537  0.36289840     0.43880
N531        N  0.80577264  0.50391962  0.40105304    -0.34670
N532        N  0.80533133  0.46202184  0.40060656    -0.28920
C533        C  0.81699760  0.44737229  0.42712153    -0.05020
C534        C  0.82464697  0.48178585  0.44512490     0.07190
C535        C  0.81770764  0.51711047  0.42784193     0.00990
H536        H  0.82208021  0.41427032  0.43234641     0.08640
H537        H  0.82347791  0.54984809  0.43374526     0.07720
N538        N  0.78012235  0.39936324  0.32295429    -0.36120
N539        N  0.76942695  0.42015645  0.29885012    -0.28300
C540        C  0.76179011  0.39190879  0.27731594    -0.03540
C541        C  0.76836279  0.35160744  0.28849158     0.05070
C542        C  0.77999067  0.35755477  0.31738596     0.03170
H543        H  0.75241607  0.40012417  0.25520198     0.08270
H544        H  0.78730859  0.33323873  0.33336519     0.07110
N545        N  0.44089322  0.74417545  0.30005460    -0.27280
N546        N  0.42013519  0.75506821  0.32409129    -0.35140
C547        C  0.37834799  0.75557125  0.31837836     0.01060
C548        C  0.37236545  0.74418001  0.28944547     0.07080
C549        C  0.41263507  0.73705136  0.27841431    -0.06020
H550        H  0.35407388  0.76333739  0.33425016     0.07750
H551        H  0.42083116  0.72780358  0.25629245     0.08950
Cu552      Cu  0.44842376  0.76845049  0.36399048     0.44170
Cu553      Cu  0.50670399  0.74133008  0.29780009     0.41990
Cu554      Cu  0.56167470  0.76984796  0.36549310     0.43880
N555        N  0.48289013  0.78166859  0.40152452    -0.34670
N556        N  0.52479674  0.78218244  0.40209175    -0.28920
C557        C  0.53781791  0.79528984  0.42867656    -0.05020
C558        C  0.50237000  0.80295683  0.44566469     0.07190
C559        C  0.46807862  0.79442191  0.42772503     0.00990
H560        H  0.57052258  0.80123402  0.43461489     0.08640
H561        H  0.43493033  0.79955232  0.43274307     0.07720
N562        N  0.59192505  0.75741615  0.32609821    -0.36120
N563        N  0.57225502  0.74613650  0.30166839    -0.28300
C564        C  0.60135666  0.73977697  0.28054245    -0.03540
C565        C  0.64107393  0.74776496  0.29224128     0.05070
C566        C  0.63391673  0.75889943  0.32110485     0.03170
H567        H  0.59409372  0.73030539  0.25829780     0.08270
H568        H  0.65750839  0.76703768  0.33741059     0.07110
C569        C  0.54406367  0.00559616  0.50090574    -0.20300
C570        C  0.50613435  0.02875732  0.49988955    -0.06860
C571        C  0.46690766  0.00725208  0.49883739     0.14000
C572        C  0.46647111  0.96273514  0.49880016    -0.20350
C573        C  0.50439973  0.93957300  0.49983019    -0.06870
C574        C  0.54362640  0.96107934  0.50088511     0.13990
C575        C  0.58486666  0.93697106  0.50194899    -0.23700
H576        H  0.57401929  0.02244091  0.50171164     0.15280
H577        H  0.43651304  0.94589102  0.49803550     0.15310
C578        C  0.42566385  0.03136200  0.49785620    -0.23650
H579        H  0.61262101  0.95864402  0.50262473     0.05520
H580        H  0.58778204  0.91662271  0.48218674     0.08750
H581        H  0.58579087  0.91668758  0.52184582     0.08750
H582        H  0.42469464  0.05170887  0.47799148     0.08730
H583        H  0.42279150  0.05164751  0.51765267     0.08730
H584        H  0.39790894  0.00969000  0.49717926     0.05510
C585        C  0.98295052  0.44848131  0.51025012    -0.20300
C586        C  0.96052903  0.48411858  0.50029161    -0.06860
C587        C  0.98295987  0.52036732  0.49074344     0.14000
C588        C  0.02746825  0.51990499  0.49110901    -0.20350
C589        C  0.04989610  0.48424258  0.50101296    -0.06870
C590        C  0.02746886  0.44800937  0.51059414     0.13990
C591        C  0.05038842  0.40846216  0.52034087    -0.23700
H592        H  0.96547477  0.42076592  0.51745548     0.15280
H593        H  0.04494067  0.54759410  0.48385062     0.15310
C594        C  0.96005147  0.55988340  0.48091660    -0.23650
H595        H  0.02792240  0.38259118  0.52598081     0.05520
H596        H  0.06983123  0.41520847  0.54007724     0.08750
H597        H  0.07130731  0.39698763  0.50244784     0.08750
H598        H  0.93902580  0.57135331  0.49875058     0.08730
H599        H  0.94072336  0.55311153  0.46113125     0.08730
H600        H  0.98252122  0.58577202  0.47532250     0.05510
C601        C  0.52729629  0.94654770  0.00274400    -0.20300
C602        C  0.54980698  0.98460424  0.99965240    -0.06860
C603        C  0.52761923  0.02327349  0.99668970     0.14000
C604        C  0.48309730  0.02300094  0.99678914    -0.20350
C605        C  0.46058977  0.98494212  0.99990163    -0.06870
C606        C  0.48278223  0.94627485  0.00285399     0.13990
C607        C  0.45942837  0.90483507  0.00587095    -0.23700
H608        H  0.54465833  0.91702183  0.00499437     0.15280
H609        H  0.46573288  0.05253037  0.99457345     0.15310
C610        C  0.55098451  0.06471328  0.99372983    -0.23650
H611        H  0.48160388  0.87755804  0.00767561     0.05520
H612        H  0.43892851  0.89972747  0.98637244     0.08750
H613        H  0.43938456  0.90544051  0.02585987     0.08750
H614        H  0.57108535  0.06412632  0.97376803     0.08730
H615        H  0.57143099  0.06979429  0.01325869     0.08730
H616        H  0.52881503  0.09199359  0.99191242     0.05510
C617        C  0.97403451  0.50629966  0.98497824    -0.20300
C618        C  0.00390697  0.52869922  0.00175383    -0.06860
C619        C  0.03540156  0.50590411  0.01738390     0.14000
C620        C  0.03589173  0.46142598  0.01588498    -0.20350
C621        C  0.00606694  0.43903878  0.99906344    -0.06870
C622        C  0.97453958  0.46182997  0.98346513     0.13990
C623        C  0.94026591  0.43971185  0.96613594    -0.23700
H624        H  0.94992640  0.52384102  0.97308507     0.15280
H625        H  0.06001048  0.44387806  0.02776277     0.15310
C626        C  0.06969138  0.52802268  0.03469275    -0.23650
H627        H  0.91621001  0.46247014  0.95776514     0.05520
H628        H  0.92368799  0.41632701  0.98025751     0.08750
H629        H  0.95390382  0.42343032  0.94681480     0.08750
H630        H  0.05605162  0.54435990  0.05399106     0.08730
H631        H  0.08630350  0.55135656  0.02054988     0.08730
H632        H  0.09371737  0.50525693  0.04309491     0.05510
loop_ 
_geom_bond_atom_site_label_1 
_geom_bond_atom_site_label_2 
_geom_bond_distance 
_geom_bond_site_symmetry_2 
_ccdc_geom_bond_type 
C1            C2   1.401   1_654  A
C1            C6   1.401       .  A
C1          C334   1.465   1_655  S
C2            C3   1.401       .  A
C2            H7   1.084       .  S
C3            C4   1.402       .  A
C3          C120   1.466       .  S
C4            C5   1.404   1_556  A
C4            H8   1.084       .  S
C5            C6   1.403   1_455  A
C5          C618   1.485       .  S
C6            H9   1.083       .  S
C10          C11   1.403       .  A
C10          C15   1.402       .  A
C10          C68   1.466       .  S
C11          C12   1.403   1_556  A
C11          H16   1.084   1_556  S
C12          C13   1.401       .  A
C12         C386   1.466       .  S
C13          C14   1.400   1_554  A
C13          H17   1.084       .  S
C14          C15   1.400       .  A
C14         C602   1.474       .  S
C15          H18   1.084       .  S
C19          C20   1.403       .  A
C19          C24   1.402       .  A
C19         C292   1.467       .  S
C20          C21   1.403       .  A
C20          H25   1.084       .  S
C21          C22   1.401       .  A
C21         C534   1.465       .  S
C22          C23   1.400       .  A
C22          H26   1.084       .  S
C23          C24   1.401       .  A
C23         C586   1.477       .  S
C24          H27   1.084       .  S
C28          C29   1.403       .  A
C28          C33   1.402       .  A
C28         C558   1.467       .  S
C29          C30   1.403       .  A
C29          H34   1.084       .  S
C30          C31   1.401       .  A
C30         C268   1.466       .  S
C31          C32   1.400       .  A
C31          H35   1.084       .  S
C32          C33   1.400       .  A
C32         C573   1.474       .  S
C33          H36   1.084       .  S
C37          C38   1.401       .  A
C37          C42   1.403       .  A
C37         C486   1.466       .  S
C38          C39   1.400       .  A
C38          H43   1.084       .  S
C39          C40   1.400       .  A
C39         C570   1.474       .  S
C40          C41   1.402       .  A
C40          H44   1.084       .  S
C41          C42   1.403       .  A
C41         C244   1.466       .  S
C42          H45   1.084       .  S
C46          C47   1.401       .  A
C46          C51   1.403       .  A
C46         C220   1.466       .  S
C47          C48   1.401       .  A
C47          H52   1.084       .  S
C48          C49   1.401       .  A
C48         C589   1.477       .  S
C49          C50   1.402       .  A
C49          H53   1.084       .  S
C50          C51   1.403       .  A
C50         C510   1.466       .  S
C51          H54   1.084       .  S
N55          N56   1.323       .  A
N55          C59   1.346       .  A
N55         Cu63   2.079   1_545  S
N56          C57   1.344       .  A
N56         Cu62   2.068       .  S
C57          C58   1.380       .  A
C57          H60   1.082       .  S
C58          C59   1.384       .  A
C58          C91   1.467       .  S
C59          H61   1.082       .  S
Cu62         N65   2.068       .  S
Cu63         N73   2.079       .  S
Cu64         N66   2.071       .  S
Cu64         N72   2.071       .  S
N65          N66   1.321   1_545  A
N65          C69   1.344       .  A
N66          C67   1.345       .  A
C67          C68   1.382       .  A
C67          H70   1.082       .  S
C68          C69   1.381   1_565  A
C69          H71   1.082       .  S
N72          N73   1.323       .  A
N72          C76   1.343       .  A
N73          C74   1.347       .  A
C74          C75   1.384       .  A
C74          H77   1.082       .  S
C75          C76   1.381       .  A
C75         C103   1.468       .  S
C76          H78   1.082       .  S
O79         Cu87   2.008       .  S
O79          C89   1.278       .  A
O80         Cu87   2.015       .  S
O80          C90   1.278       .  A
O81         Cu87   2.009       .  S
O81          C91   1.278       .  A
O82         Cu87   2.017       .  S
O82          C92   1.278       .  A
O83         Cu88   2.000       .  S
O83          C92   1.277       .  A
O84         Cu88   2.008       .  S
O84          C91   1.277       .  A
O85         Cu88   2.001       .  S
O85          C90   1.277       .  A
O86         Cu88   2.009       .  S
O86          C89   1.277       .  A
Cu87        Cu88   2.377       .  S
C89         C165   1.467       .  S
C90         C234   1.467       .  S
C92         C299   1.468       .  S
O93        Cu101   2.002       .  S
O93         C103   1.277       .  A
O94        Cu101   2.010       .  S
O94         C104   1.277       .  A
O95        Cu101   2.000       .  S
O95         C105   1.277       .  A
O96        Cu101   2.007       .  S
O96         C106   1.277       .  A
O97        Cu102   2.008       .  S
O97         C106   1.278       .  A
O98        Cu102   2.016       .  S
O98         C105   1.278       .  A
O99        Cu102   2.009       .  S
O99         C104   1.278       .  A
O100       Cu102   2.016       .  S
O100        C103   1.278       .  A
Cu101      Cu102   2.377       .  S
C104        C282   1.468       .  S
C105        C127   1.468       .  S
C106        C258   1.467       .  S
N107        N108   1.323       .  A
N107        C111   1.346       .  A
N107       Cu115   2.078       .  S
N108        C109   1.344       .  A
N108       Cu114   2.068       .  S
C109        C110   1.380       .  A
C109        H112   1.082       .  S
C110        C111   1.384       .  A
C110        C143   1.467       .  S
C111        H113   1.082       .  S
Cu114       N117   2.067       .  S
Cu115       N125   2.078   1_455  S
Cu116       N118   2.071       .  S
Cu116       N124   2.071       .  S
N117        N118   1.321   1_455  A
N117        C121   1.344       .  A
N118        C119   1.345       .  A
C119        C120   1.382   1_655  A
C119        H122   1.082       .  S
C120        C121   1.381       .  A
C121        H123   1.082       .  S
N124        N125   1.323       .  A
N124        C128   1.343       .  A
N125        C126   1.347       .  A
C126        C127   1.384       .  A
C126        H129   1.082       .  S
C127        C128   1.381       .  A
C128        H130   1.082       .  S
O131       Cu139   2.009       .  S
O131        C141   1.277       .  A
O132       Cu139   2.001       .  S
O132        C142   1.277       .  A
O133       Cu139   2.007       .  S
O133        C143   1.277       .  A
O134       Cu139   2.000       .  S
O134        C144   1.277       .  A
O135       Cu140   2.017       .  S
O135        C144   1.278       .  A
O136       Cu140   2.009       .  S
O136        C143   1.278       .  A
O137       Cu140   2.016       .  S
O137        C142   1.278       .  A
O138       Cu140   2.008       .  S
O138        C141   1.278       .  A
Cu139      Cu140   2.377       .  S
C141        C186   1.467       .  S
C142        C227   1.468       .  S
C144        C275   1.468       .  S
N145        N146   1.322       .  A
N145        C149   1.347       .  A
N145       Cu153   2.077       .  S
N146        C147   1.342       .  A
N146       Cu152   2.064       .  S
C147        C148   1.380       .  A
C147        H150   1.082       .  S
C148        C149   1.384       .  A
C148        C181   1.466       .  S
C149        H151   1.082       .  S
Cu152       N155   2.064       .  S
Cu153       N163   2.078   1_455  S
Cu154       N156   2.072       .  S
Cu154       N162   2.072       .  S
N155        N156   1.321   1_455  A
N155        C159   1.345       .  A
N156        C157   1.344       .  A
C157        C158   1.382   1_655  A
C157        H160   1.082       .  S
C158        C159   1.381       .  A
C158        C316   1.465       .  S
C159        H161   1.082       .  S
N162        N163   1.323       .  A
N162        C166   1.344       .  A
N163        C164   1.346       .  A
C164        C165   1.383       .  A
C164        H167   1.082       .  S
C165        C166   1.381       .  A
C166        H168   1.082       .  S
O169       Cu177   2.001       .  S
O169        C179   1.277       .  A
O170       Cu177   2.008       .  S
O170        C180   1.277       .  A
O171       Cu177   1.999       .  S
O171        C181   1.277       .  A
O172       Cu177   2.008       .  S
O172        C182   1.277       .  A
O173       Cu178   2.007       .  S
O173        C182   1.278       .  A
O174       Cu178   2.014       .  S
O174        C181   1.278       .  A
O175       Cu178   2.008       .  S
O175        C180   1.278       .  A
O176       Cu178   2.017       .  S
O176        C179   1.278       .  A
Cu177      Cu178   2.377       .  S
C179        C203   1.468       .  S
C180        C210   1.467       .  S
C182        C251   1.467       .  S
N183        N184   1.323       .  A
N183        C187   1.346       .  A
N183       Cu191   2.079       .  S
N184        C185   1.344       .  A
N184       Cu190   2.070       .  S
C185        C186   1.381       .  A
C185        H188   1.082       .  S
C186        C187   1.383       .  A
C187        H189   1.082       .  S
Cu190       N193   2.070       .  S
Cu191       N201   2.078   1_565  S
Cu192       N194   2.069       .  S
Cu192       N200   2.070       .  S
N193        N194   1.321   1_565  A
N193        C197   1.344       .  A
N194        C195   1.345       .  A
C195        C196   1.381   1_545  A
C195        H198   1.082       .  S
C196        C197   1.381       .  A
C196        C303   1.466       .  S
C197        H199   1.082       .  S
N200        N201   1.323       .  A
N200        C204   1.342       .  A
N201        C202   1.348       .  A
C202        C203   1.384       .  A
C202        H205   1.082       .  S
C203        C204   1.381       .  A
C204        H206   1.082       .  S
N207        N208   1.323       .  A
N207        C211   1.346       .  A
N207       Cu215   2.079       .  S
N208        C209   1.344       .  A
N208       Cu214   2.069       .  S
C209        C210   1.380       .  A
C209        H212   1.082       .  S
C210        C211   1.384       .  A
C211        H213   1.082       .  S
Cu214       N217   2.068       .  S
Cu215       N225   2.079       .  S
Cu216       N218   2.070       .  S
Cu216       N224   2.070       .  S
N217        N218   1.321       .  A
N217        C221   1.344       .  A
N218        C219   1.345       .  A
C219        C220   1.382       .  A
C219        H222   1.082       .  S
C220        C221   1.381       .  A
C221        H223   1.082       .  S
N224        N225   1.323       .  A
N224        C228   1.342       .  A
N225        C226   1.348       .  A
C226        C227   1.384       .  A
C226        H229   1.082       .  S
C227        C228   1.380       .  A
C228        H230   1.082       .  S
N231        N232   1.323       .  A
N231        C235   1.347       .  A
N231       Cu239   2.078       .  S
N232        C233   1.342       .  A
N232       Cu238   2.068       .  S
C233        C234   1.380       .  A
C233        H236   1.082       .  S
C234        C235   1.384       .  A
C235        H237   1.082       .  S
Cu238       N241   2.068       .  S
Cu239       N249   2.078       .  S
Cu240       N242   2.071       .  S
Cu240       N248   2.071       .  S
N241        N242   1.321       .  A
N241        C245   1.345       .  A
N242        C243   1.345       .  A
C243        C244   1.382       .  A
C243        H246   1.082       .  S
C244        C245   1.381       .  A
C245        H247   1.082       .  S
N248        N249   1.323       .  A
N248        C252   1.344       .  A
N249        C250   1.346       .  A
C250        C251   1.383       .  A
C250        H253   1.082       .  S
C251        C252   1.381       .  A
C252        H254   1.082       .  S
N255        N256   1.323       .  A
N255        C259   1.346       .  A
N255       Cu263   2.078       .  S
N256        C257   1.344       .  A
N256       Cu262   2.069       .  S
C257        C258   1.381       .  A
C257        H260   1.082       .  S
C258        C259   1.383       .  A
C259        H261   1.082       .  S
Cu262       N265   2.068       .  S
Cu263       N273   2.078       .  S
Cu264       N266   2.071       .  S
Cu264       N272   2.071       .  S
N265        N266   1.321       .  A
N265        C269   1.344       .  A
N266        C267   1.345       .  A
C267        C268   1.382       .  A
C267        H270   1.082       .  S
C268        C269   1.381       .  A
C269        H271   1.082       .  S
N272        N273   1.323       .  A
N272        C276   1.342       .  A
N273        C274   1.348       .  A
C274        C275   1.384       .  A
C274        H277   1.082       .  S
C275        C276   1.381       .  A
C276        H278   1.082       .  S
N279        N280   1.323       .  A
N279        C283   1.346       .  A
N279       Cu287   2.079       .  S
N280        C281   1.344       .  A
N280       Cu286   2.072       .  S
C281        C282   1.381       .  A
C281        H284   1.082       .  S
C282        C283   1.384       .  A
C283        H285   1.082       .  S
Cu286       N289   2.071       .  S
Cu287       N297   2.078       .  S
Cu288       N290   2.070       .  S
Cu288       N296   2.070       .  S
N289        N290   1.321       .  A
N289        C293   1.345       .  A
N290        C291   1.345       .  A
C291        C292   1.382       .  A
C291        H294   1.082       .  S
C292        C293   1.382       .  A
C293        H295   1.082       .  S
N296        N297   1.323       .  A
N296        C300   1.343       .  A
N297        C298   1.347       .  A
C298        C299   1.384       .  A
C298        H301   1.082       .  S
C299        C300   1.381       .  A
C300        H302   1.082       .  S
C303        C304   1.402       .  A
C303        C308   1.403   1_556  A
C304        C305   1.400   1_556  A
C304        H309   1.084       .  S
C305        C306   1.400       .  A
C305        C605   1.474   1_554  S
C306        C307   1.401       .  A
C306        H310   1.084       .  S
C307        C308   1.403       .  A
C307        C424   1.466       .  S
C308        H311   1.084       .  S
C312        C313   1.402       .  A
C312        C317   1.401   1_554  A
C312        C448   1.466       .  S
C313        C314   1.404   1_554  A
C313        H318   1.084       .  S
C314        C315   1.402       .  A
C314        C621   1.485       .  S
C315        C316   1.401       .  A
C315        H319   1.083       .  S
C316        C317   1.401       .  A
C317        H320   1.084   1_556  S
N321        N322   1.322       .  A
N321        C325   1.348       .  A
N321       Cu329   2.080   1_655  S
N322        C323   1.342       .  A
N322       Cu328   2.065       .  S
C323        C324   1.380       .  A
C323        H326   1.082       .  S
C324        C325   1.385       .  A
C324        C371   1.467       .  S
C325        H327   1.082       .  S
Cu328       N331   2.064       .  S
Cu329       N339   2.080       .  S
Cu330       N332   2.072       .  S
Cu330       N338   2.073       .  S
N331        N332   1.321   1_655  A
N331        C335   1.345       .  A
N332        C333   1.344       .  A
C333        C334   1.382       .  A
C333        H336   1.082       .  S
C334        C335   1.381   1_455  A
C335        H337   1.082       .  S
N338        N339   1.323       .  A
N338        C342   1.344       .  A
N339        C340   1.346       .  A
C340        C341   1.383       .  A
C340        H343   1.082       .  S
C341        C342   1.381       .  A
C341        C355   1.468       .  S
C342        H344   1.082       .  S
O345       Cu353   2.009       .  S
O345        C355   1.277       .  A
O346       Cu353   2.001       .  S
O346        C356   1.277       .  A
O347       Cu353   2.007       .  S
O347        C357   1.277       .  A
O348       Cu353   1.999       .  S
O348        C358   1.277       .  A
O349       Cu354   2.017       .  S
O349        C358   1.278       .  A
O350       Cu354   2.009       .  S
O350        C357   1.278       .  A
O351       Cu354   2.016       .  S
O351        C356   1.278       .  A
O352       Cu354   2.009       .  S
O352        C355   1.278       .  A
Cu353      Cu354   2.377       .  S
C356        C548   1.468       .  S
C357        C414   1.467       .  S
C358        C517   1.468       .  S
O359       Cu367   2.017       .  S
O359        C369   1.278       .  A
O360       Cu367   2.008       .  S
O360        C370   1.278       .  A
O361       Cu367   2.015       .  S
O361        C371   1.278       .  A
O362       Cu367   2.009       .  S
O362        C372   1.278       .  A
O363       Cu368   2.010       .  S
O363        C372   1.277       .  A
O364       Cu368   2.001       .  S
O364        C371   1.277       .  A
O365       Cu368   2.007       .  S
O365        C370   1.277       .  A
O366       Cu368   2.000       .  S
O366        C369   1.277       .  A
Cu367      Cu368   2.377       .  S
C369        C393   1.467       .  S
C370        C524   1.467       .  S
C372        C565   1.468       .  S
N373        N374   1.323       .  A
N373        C377   1.346       .  A
N373       Cu381   2.077   1_545  S
N374        C375   1.344       .  A
N374       Cu380   2.068       .  S
C375        C376   1.381       .  A
C375        H378   1.082       .  S
C376        C377   1.383       .  A
C376        C407   1.467       .  S
C377        H379   1.082       .  S
Cu380       N383   2.068       .  S
Cu381       N391   2.077       .  S
Cu382       N384   2.070       .  S
Cu382       N390   2.070       .  S
N383        N384   1.321   1_545  A
N383        C387   1.344       .  A
N384        C385   1.345       .  A
C385        C386   1.382       .  A
C385        H388   1.082       .  S
C386        C387   1.381   1_565  A
C387        H389   1.082       .  S
N390        N391   1.323       .  A
N390        C394   1.343       .  A
N391        C392   1.347       .  A
C392        C393   1.384       .  A
C392        H395   1.082       .  S
C393        C394   1.381       .  A
C394        H396   1.082       .  S
O397       Cu405   2.007       .  S
O397        C407   1.278       .  A
O398       Cu405   2.016       .  S
O398        C408   1.278       .  A
O399       Cu405   2.010       .  S
O399        C409   1.278       .  A
O400       Cu405   2.018       .  S
O400        C410   1.278       .  A
O401       Cu406   2.000       .  S
O401        C410   1.277       .  A
O402       Cu406   2.008       .  S
O402        C409   1.277       .  A
O403       Cu406   2.000       .  S
O403        C408   1.277       .  A
O404       Cu406   2.007       .  S
O404        C407   1.277       .  A
Cu405      Cu406   2.377       .  S
C408        C541   1.467       .  S
C409        C438   1.468       .  S
C410        C493   1.468       .  S
N411        N412   1.323       .  A
N411        C415   1.346       .  A
N411       Cu419   2.078       .  S
N412        C413   1.344       .  A
N412       Cu418   2.068       .  S
C413        C414   1.380       .  A
C413        H416   1.082       .  S
C414        C415   1.384       .  A
C415        H417   1.082       .  S
Cu418       N421   2.068       .  S
Cu419       N429   2.078   1_565  S
Cu420       N422   2.070       .  S
Cu420       N428   2.070       .  S
N421        N422   1.321   1_565  A
N421        C425   1.344       .  A
N422        C423   1.345       .  A
C423        C424   1.382   1_545  A
C423        H426   1.082       .  S
C424        C425   1.381       .  A
C425        H427   1.082       .  S
N428        N429   1.323       .  A
N428        C432   1.342       .  A
N429        C430   1.347       .  A
C430        C431   1.384       .  A
C430        H433   1.082       .  S
C431        C432   1.380       .  A
C431        C472   1.467       .  S
C432        H434   1.082       .  S
N435        N436   1.323       .  A
N435        C439   1.346       .  A
N435       Cu443   2.079   1_655  S
N436        C437   1.344       .  A
N436       Cu442   2.068       .  S
C437        C438   1.381       .  A
C437        H440   1.082       .  S
C438        C439   1.384       .  A
C439        H441   1.082       .  S
Cu442       N445   2.068       .  S
Cu443       N453   2.079       .  S
Cu444       N446   2.072       .  S
Cu444       N452   2.072       .  S
N445        N446   1.321   1_655  A
N445        C449   1.344       .  A
N446        C447   1.345       .  A
C447        C448   1.382       .  A
C447        H450   1.082       .  S
C448        C449   1.381   1_455  A
C449        H451   1.082       .  S
N452        N453   1.323       .  A
N452        C456   1.343       .  A
N453        C454   1.348       .  A
C454        C455   1.384       .  A
C454        H457   1.082       .  S
C455        C456   1.381       .  A
C455        C470   1.468       .  S
C456        H458   1.082       .  S
O459       Cu467   2.008       .  S
O459        C469   1.277       .  A
O460       Cu467   2.001       .  S
O460        C470   1.277       .  A
O461       Cu467   2.008       .  S
O461        C471   1.277       .  A
O462       Cu467   2.000       .  S
O462        C472   1.277       .  A
O463       Cu468   2.016       .  S
O463        C472   1.278       .  A
O464       Cu468   2.008       .  S
O464        C471   1.278       .  A
O465       Cu468   2.017       .  S
O465        C470   1.278       .  A
O466       Cu468   2.010       .  S
O466        C469   1.278       .  A
Cu467      Cu468   2.377       .  S
C469        C476   1.468       .  S
C471        C500   1.467       .  S
N473        N474   1.323       .  A
N473        C477   1.346       .  A
N473       Cu481   2.079       .  S
N474        C475   1.344       .  A
N474       Cu480   2.069       .  S
C475        C476   1.381       .  A
C475        H478   1.082       .  S
C476        C477   1.384       .  A
C477        H479   1.082       .  S
Cu480       N483   2.069       .  S
Cu481       N491   2.079       .  S
Cu482       N484   2.071       .  S
Cu482       N490   2.071       .  S
N483        N484   1.321       .  A
N483        C487   1.344       .  A
N484        C485   1.345       .  A
C485        C486   1.382       .  A
C485        H488   1.082       .  S
C486        C487   1.381       .  A
C487        H489   1.082       .  S
N490        N491   1.323       .  A
N490        C494   1.342       .  A
N491        C492   1.348       .  A
C492        C493   1.384       .  A
C492        H495   1.082       .  S
C493        C494   1.381       .  A
C494        H496   1.082       .  S
N497        N498   1.323       .  A
N497        C501   1.346       .  A
N497       Cu505   2.078       .  S
N498        C499   1.344       .  A
N498       Cu504   2.070       .  S
C499        C500   1.381       .  A
C499        H502   1.082       .  S
C500        C501   1.383       .  A
C501        H503   1.082       .  S
Cu504       N507   2.070       .  S
Cu505       N515   2.078       .  S
Cu506       N508   2.070       .  S
Cu506       N514   2.071       .  S
N507        N508   1.321       .  A
N507        C511   1.344       .  A
N508        C509   1.345       .  A
C509        C510   1.382       .  A
C509        H512   1.082       .  S
C510        C511   1.381       .  A
C511        H513   1.082       .  S
N514        N515   1.323       .  A
N514        C518   1.342       .  A
N515        C516   1.347       .  A
C516        C517   1.384       .  A
C516        H519   1.082       .  S
C517        C518   1.381       .  A
C518        H520   1.082       .  S
N521        N522   1.323       .  A
N521        C525   1.346       .  A
N521       Cu529   2.078       .  S
N522        C523   1.344       .  A
N522       Cu528   2.068       .  S
C523        C524   1.380       .  A
C523        H526   1.082       .  S
C524        C525   1.383       .  A
C525        H527   1.082       .  S
Cu528       N531   2.068       .  S
Cu529       N539   2.078       .  S
Cu530       N532   2.069       .  S
Cu530       N538   2.069       .  S
N531        N532   1.321       .  A
N531        C535   1.344       .  A
N532        C533   1.345       .  A
C533        C534   1.382       .  A
C533        H536   1.082       .  S
C534        C535   1.381       .  A
C535        H537   1.082       .  S
N538        N539   1.323       .  A
N538        C542   1.342       .  A
N539        C540   1.347       .  A
C540        C541   1.384       .  A
C540        H543   1.082       .  S
C541        C542   1.380       .  A
C542        H544   1.082       .  S
N545        N546   1.323       .  A
N545        C549   1.348       .  A
N545       Cu553   2.079       .  S
N546        C547   1.342       .  A
N546       Cu552   2.069       .  S
C547        C548   1.380       .  A
C547        H550   1.082       .  S
C548        C549   1.384       .  A
C549        H551   1.082       .  S
Cu552       N555   2.069       .  S
Cu553       N563   2.079       .  S
Cu554       N556   2.072       .  S
Cu554       N562   2.073       .  S
N555        N556   1.321       .  A
N555        C559   1.345       .  A
N556        C557   1.345       .  A
C557        C558   1.382       .  A
C557        H560   1.082       .  S
C558        C559   1.381       .  A
C559        H561   1.082       .  S
N562        N563   1.323       .  A
N562        C566   1.344       .  A
N563        C564   1.346       .  A
C564        C565   1.384       .  A
C564        H567   1.082       .  S
C565        C566   1.381       .  A
C566        H568   1.082       .  S
C569        C570   1.401       .  A
C569        C574   1.403   1_545  A
C569        H576   1.084       .  S
C570        C571   1.411       .  A
C571        C572   1.403   1_545  A
C571        C578   1.506       .  S
C572        C573   1.401       .  A
C572        H577   1.084       .  S
C573        C574   1.411       .  A
C574        C575   1.506       .  S
C575        H579   1.111       .  S
C575        H580   1.110       .  S
C575        H581   1.110       .  S
C578        H582   1.110       .  S
C578        H583   1.110       .  S
C578        H584   1.111       .  S
C585        C586   1.402       .  A
C585        C590   1.403   1_655  A
C585        H592   1.084       .  S
C586        C587   1.413       .  A
C587        C588   1.403   1_655  A
C587        C594   1.507       .  S
C588        C589   1.402       .  A
C588        H593   1.084       .  S
C589        C590   1.413       .  A
C590        C591   1.507       .  S
C591        H595   1.111       .  S
C591        H596   1.109       .  S
C591        H597   1.110       .  S
C594        H598   1.110       .  S
C594        H599   1.109       .  S
C594        H600   1.111       .  S
C601        C602   1.401   1_554  A
C601        C606   1.403       .  A
C601        H608   1.084       .  S
C602        C603   1.411   1_565  A
C603        C604   1.403       .  A
C603        C610   1.506       .  S
C604        C605   1.401   1_545  A
C604        H609   1.084       .  S
C605        C606   1.411   1_556  A
C606        C607   1.506       .  S
C607        H611   1.111       .  S
C607        H612   1.110   1_554  S
C607        H613   1.110       .  S
C610        H614   1.110       .  S
C610        H615   1.110   1_556  S
C610        H616   1.111       .  S
C617        C618   1.404   1_656  A
C617        C622   1.404       .  A
C617        H624   1.084       .  S
C618        C619   1.417       .  A
C619        C620   1.404       .  A
C619        C626   1.509       .  S
C620        C621   1.403   1_554  A
C620        H625   1.084       .  S
C621        C622   1.417   1_455  A
C622        C623   1.509       .  S
C623        H627   1.111       .  S
C623        H628   1.110       .  S
C623        H629   1.107       .  S
C626        H630   1.107       .  S
C626        H631   1.110       .  S
C626        H632   1.111       .  S
