geometry optimzed in LAMMPS
_audit_creation_date              2020-11-30 
_audit_creation_method            'lammps2cif' 
_symmetry_space_group_name_H-M    'P1' 
_symmetry_Int_Tables_number       1 
_symmetry_cell_setting            triclinic 
loop_ 
_symmetry_equiv_pos_as_xyz 
  x,y,z 
_cell_length_a                    40.988659025497086 
_cell_length_b                    41.1863170943393 
_cell_length_c                    86.88073076393833 
_cell_angle_alpha                 89.94761728023695 
_cell_angle_beta                  90.12938258261735 
_cell_angle_gamma                 124.56081034769707 
loop_ 
_atom_site_label 
_atom_site_type_symbol 
_atom_site_fract_x 
_atom_site_fract_y 
_atom_site_fract_z 
_atom_site_charge 
O1          O  0.02050364  0.77076562  0.97425168    -0.57390
C2          C  0.06409604  0.86111254  0.99757594     0.75240
O3          O  0.93872876  0.78689497  0.00850844    -0.58550
C4          C  0.99171977  0.73572519  0.97173224     0.75210
C5          C  0.99325731  0.73823004  0.02196739     0.77600
Cd6        Cd  0.99156782  0.78297508  0.99666449     1.37470
O7          O  0.04729160  0.84379829  0.98509405    -0.57390
O8          O  0.02377403  0.76925874  0.01670907    -0.56200
C9          C  0.92824265  0.79538870  0.99632285     0.77560
O10         O  0.96083272  0.72777273  0.01563364    -0.58570
O11         O  0.04668681  0.84315667  0.00988971    -0.57020
O12         O  0.96214463  0.72285668  0.98047348    -0.57010
O13         O  0.94725660  0.79894811  0.98428116    -0.56180
O14         O  0.11920100  0.91660251  0.98506254    -0.57390
C15         C  0.22826844  0.97762297  0.97071915     0.75240
O16         O  0.19870386  0.03930476  0.00325786    -0.58550
C17         C  0.10253689  0.89952930  0.99755485     0.75210
C18         C  0.22747002  0.97288208  0.02139715     0.77600
Cd19       Cd  0.18048301  0.97271415  0.99637081     1.37460
O20         O  0.19717320  0.94533786  0.97482188    -0.57390
O21         O  0.22642906  0.96003089  0.00810740    -0.56200
C22         C  0.17293394  0.03889760  0.99509284     0.77560
O23         O  0.20509132  0.98454924  0.02349418    -0.58570
O24         O  0.23583619  0.00790260  0.97788028    -0.57020
O25         O  0.12120398  0.91667126  0.00981681    -0.57010
O26         O  0.15011581  0.00785769  0.98740175    -0.56180
O27         O  0.97137574  0.16812474  0.01427925    -0.57390
C28         C  0.92546413  0.07751852  0.99109965     0.75240
O29         O  0.03077749  0.21047951  0.97283262    -0.58550
C30         C  0.00120595  0.20271196  0.01680432     0.75210
C31         C  0.06221610  0.14237271  0.99220181     0.77600
Cd32       Cd  0.99904675  0.15498120  0.99175554     1.37470
O33         O  0.94225953  0.09502866  0.00355273    -0.57390
O34         O  0.04430785  0.14052477  0.00434233    -0.56200
C35         C  0.99863783  0.20182236  0.96684650     0.77560
O36         O  0.05022233  0.14855608  0.97984921    -0.58570
O37         O  0.94339901  0.09484190  0.97876753    -0.57020
O38         O  0.03054291  0.21454943  0.00808746    -0.57010
O39         O  0.96756620  0.17127669  0.97214956    -0.56180
O40         O  0.10766885  0.13154332  0.00460146    -0.57390
C41         C  0.17045933  0.07316786  0.99452537     0.75240
O42         O  0.23159945  0.19722145  0.98132497    -0.58550
C43         C  0.09648486  0.13958899  0.99247566     0.75210
C44         C  0.20884678  0.19316131  0.01981012     0.77600
Cd45       Cd  0.16986856  0.14365553  0.99330907     1.37470
O46         O  0.14324887  0.07280980  0.98744228    -0.57390
O47         O  0.18698988  0.15595928  0.02106262    -0.56200
C48         C  0.22044399  0.18826099  0.96748895     0.77560
O49         O  0.21143595  0.20689761  0.00648111    -0.58570
O50         O  0.19613589  0.10504131  0.00110068    -0.57020
O51         O  0.11744239  0.14688440  0.98065869    -0.57010
O52         O  0.18580198  0.15777199  0.96547796    -0.56180
O53         O  0.86939063  0.02250315  0.00354643    -0.57390
C54         C  0.76259239  0.96197825  0.01777989     0.75240
O55         O  0.79266304  0.96367169  0.96407283    -0.58550
C56         C  0.88662747  0.03946802  0.99110468     0.75210
C57         C  0.81758083  0.90019475  0.99247469     0.77600
Cd58       Cd  0.80888315  0.96572012  0.99175879     1.37460
O59         O  0.78833373  0.99431672  0.01139306    -0.57390
O60         O  0.84058728  0.93145114  0.00000937    -0.56200
C61         C  0.76217827  0.96378625  0.96613029     0.77560
O62         O  0.79089152  0.89913174  0.98470704    -0.56770
O63         O  0.75971492  0.93181861  0.01251113    -0.57020
O64         O  0.86830620  0.02241025  0.97879397    -0.57010
O65         O  0.75335063  0.96452345  0.97998629    -0.56180
O66         O  0.84867176  0.86747295  0.99980735    -0.57390
C67         C  0.89453015  0.79903357  0.99607779     0.75240
O68         O  0.77474213  0.73830510  0.01043285    -0.58550
C69         C  0.82079865  0.86636822  0.99290500     0.75210
C70         C  0.77909415  0.74727558  0.96864550     0.77600
Cd71       Cd  0.82200560  0.79651280  0.99481243     1.37470
O72         O  0.88527292  0.80990894  0.98421540    -0.57390
O73         O  0.81017820  0.78167840  0.96694755    -0.56200
C74         C  0.77589904  0.75748182  0.02202660     0.77560
O75         O  0.76782313  0.73640828  0.98234818    -0.58570
O76         O  0.87222764  0.78987625  0.00760069    -0.57020
O77         O  0.79505300  0.83413890  0.98651603    -0.57010
O78         O  0.79878446  0.79468434  0.02106537    -0.56180
O79         O  0.05616884  0.58308954  0.08666862    -0.57390
C80         C  0.10837812  0.69546837  0.09535024     0.75240
O81         O  0.98336027  0.63201024  0.08105476    -0.58550
C82         C  0.02453904  0.54953509  0.08879166     0.75210
C83         C  0.01493194  0.61392736  0.12630478     0.77600
Cd84       Cd  0.03167267  0.62194679  0.09397373     1.37470
O85         O  0.10383102  0.66416797  0.09051840    -0.57390
O86         O  0.04533806  0.61844870  0.12035505    -0.56200
C87         C  0.00416992  0.64528370  0.06892478     0.77560
O88         O  0.99047966  0.61324516  0.11707415    -0.58570
O89         O  0.07731769  0.69233544  0.09983851    -0.57020
O90         O  0.99380234  0.54880677  0.09162411    -0.57010
O91         O  0.03323285  0.64253513  0.06799536    -0.56180
O92         O  0.10631387  0.66809514  0.23255922    -0.57390
C93         C  0.04330276  0.55601696  0.22398313     0.75240
O94         O  0.97745798  0.60762898  0.23809016    -0.58550
C95         C  0.10864153  0.69973694  0.23087448     0.75210
C96         C  0.02240737  0.61827644  0.19241073     0.77600
Cd97       Cd  0.03845120  0.62249294  0.22471455     1.37470
O98         O  0.07307856  0.58990116  0.22757700    -0.57390
O99         O  0.05397265  0.62484640  0.19808550    -0.56200
C100        C  0.98396666  0.59371049  0.24982957     0.77560
O101        O  0.99805926  0.61702583  0.20181361    -0.58570
O102        O  0.01190606  0.55353870  0.22062175    -0.57020
O103        O  0.07679295  0.69594561  0.22696033    -0.57010
O104        O  0.01679697  0.59767706  0.25033992    -0.56180
O105        O  0.29074109  0.85334193  0.23455122    -0.57390
C106        C  0.40451385  0.91505318  0.22824530     0.75240
O107        O  0.33355009  0.95355827  0.20287250    -0.58550
C108        C  0.25967616  0.85194191  0.23170257     0.75210
C109        C  0.36277684  0.97669215  0.25026343     0.77600
Cd110      Cd  0.33834259  0.92037345  0.22600763     1.37470
O111        O  0.36955009  0.88438439  0.22911768    -0.57390
O112        O  0.34399622  0.94009301  0.25278815    -0.56200
C113        C  0.33632641  0.93148235  0.19359531     0.77560
O114        O  0.36697982  0.98718784  0.23629330    -0.58570
O115        O  0.40823327  0.94731444  0.22607670    -0.57020
O116        O  0.26496683  0.88364348  0.22687620    -0.57010
O117        O  0.34101116  0.90630936  0.19942296    -0.56180
O118        O  0.58151722  0.86192579  0.09066434    -0.57390
C119        C  0.55146575  0.94116466  0.09026775     0.75240
O120        O  0.65444516  0.97264753  0.11799720    -0.58550
C121        C  0.61045131  0.86156218  0.09565432     0.75210
C122        C  0.66442987  0.95566324  0.06737758     0.77600
Cd123      Cd  0.61603742  0.93361560  0.09421776     1.37470
O124        O  0.54735120  0.90832506  0.09052172    -0.57390
O125        O  0.62843246  0.92696361  0.06782764    -0.56200
C126        C  0.62775998  0.94639475  0.12687738     0.77560
O127        O  0.67781003  0.97844072  0.07902770    -0.58570
O128        O  0.58662989  0.97191477  0.09037575    -0.57020
O129        O  0.64039563  0.89411087  0.10028393    -0.57010
O130        O  0.59768602  0.91749224  0.12031811    -0.56180
O131        O  0.37606757  0.90237550  0.09051204    -0.57390
C132        C  0.25855846  0.84846952  0.09414077     0.75240
O133        O  0.34448854  0.96426817  0.11850686    -0.58550
C134        C  0.40828653  0.93616439  0.08978030     0.75210
C135        C  0.31206646  0.95727900  0.07085817     0.77600
Cd136      Cd  0.33309546  0.92431636  0.09474702     1.37470
O137        O  0.28948687  0.85313072  0.08850987    -0.57390
O138        O  0.32174445  0.93361404  0.06816093    -0.56200
C139        C  0.33759902  0.93648330  0.12735191     0.77560
O140        O  0.31611937  0.96916229  0.08463275    -0.58570
O141        O  0.26266961  0.87875093  0.09989093    -0.57020
O142        O  0.40593776  0.96552566  0.09021183    -0.57010
O143        O  0.33040191  0.90561257  0.12090075    -0.56180
O144        O  0.54629064  0.60753004  0.23188239    -0.57390
C145        C  0.62993648  0.72267703  0.23520907     0.75240
O146        O  0.66263923  0.63048648  0.24049043    -0.58550
C147        C  0.54202647  0.57519951  0.22893776     0.75210
C148        C  0.63125286  0.65275952  0.19642366     0.77600
Cd149      Cd  0.61902058  0.64851847  0.22905708     1.37470
O150        O  0.59764262  0.68963736  0.23754884    -0.57390
O151        O  0.59927021  0.64297092  0.20282587    -0.56200
C152        C  0.64958052  0.62740553  0.25402210     0.77560
O153        O  0.65999926  0.66204991  0.20530173    -0.58570
O154        O  0.65863283  0.72153749  0.23070303    -0.57020
O155        O  0.57339801  0.57711419  0.22620848    -0.57010
O156        O  0.62667995  0.63842963  0.25586939    -0.56180
O157        O  0.59384491  0.85722641  0.23298495    -0.57390
C158        C  0.54423984  0.91481968  0.22721448     0.75240
O159        O  0.66161522  0.98863961  0.23963174    -0.58550
C160        C  0.62662510  0.86101194  0.23334258     0.75210
C161        C  0.62882617  0.93558624  0.19371001     0.77600
Cd162      Cd  0.61828900  0.92407802  0.22653760     1.37470
O163        O  0.54574340  0.88509975  0.22875294    -0.57390
O164        O  0.59968974  0.90634339  0.20039217    -0.56200
C165        C  0.64404093  0.97544967  0.25246077     0.77560
O166        O  0.65666204  0.96100613  0.20246571    -0.58570
O167        O  0.57667712  0.94779689  0.22509624    -0.57020
O168        O  0.65715498  0.89543736  0.23075914    -0.57010
O169        O  0.61902376  0.93866074  0.25358628    -0.56180
O170        O  0.57717066  0.68516373  0.09327195    -0.57390
C171        C  0.54591802  0.57272521  0.09228125     0.75240
O172        O  0.67312390  0.66655919  0.08480395    -0.58550
C173        C  0.60559782  0.71856540  0.09809789     0.75210
C174        C  0.62458010  0.65193984  0.13012676     0.77600
Cd175      Cd  0.61203439  0.65308479  0.09769275     1.37460
O176        O  0.54441481  0.60187303  0.08916775    -0.57390
O177        O  0.59389763  0.64726448  0.12433079    -0.56200
C178        C  0.66855707  0.68195507  0.07307083     0.77560
O179        O  0.65145829  0.65846927  0.12079290    -0.58570
O180        O  0.57901281  0.58073835  0.09690868    -0.57020
O181        O  0.63572931  0.72056498  0.10309322    -0.57010
O182        O  0.63711193  0.68068553  0.07240214    -0.56180
O183        O  0.28227709  0.38746092  0.09254617    -0.57390
C184        C  0.39589845  0.42146167  0.09172990     0.75240
O185        O  0.31392437  0.31726189  0.12012385    -0.58550
C186        C  0.24863746  0.35782569  0.09659155     0.75210
C187        C  0.29013408  0.30126896  0.07080949     0.77600
Cd188      Cd  0.31607743  0.35404256  0.09666335     1.37470
O189        O  0.36574074  0.42173926  0.08900467    -0.57390
O190        O  0.30433909  0.33749606  0.06968922    -0.56200
C191        C  0.31241630  0.34058136  0.12919989     0.77560
O192        O  0.29209126  0.28945516  0.08406565    -0.58570
O193        O  0.38939732  0.38919362  0.09654649    -0.57020
O194        O  0.24679736  0.32717063  0.10028495    -0.57010
O195        O  0.31528541  0.36988970  0.12307215    -0.56180
O196        O  0.27585047  0.37023303  0.23571508    -0.57390
C197        C  0.39120365  0.42325593  0.22883687     0.75240
O198        O  0.33235742  0.30139723  0.23810208    -0.58550
C199        C  0.24250880  0.33870672  0.23292652     0.75210
C200        C  0.31003612  0.33373480  0.19551785     0.77600
Cd201      Cd  0.31656622  0.34734091  0.22810763     1.37470
O202        O  0.35938542  0.41928453  0.23276867    -0.57390
O203        O  0.31690642  0.36469915  0.20177937    -0.56200
C204        C  0.33585418  0.31240781  0.25196658     0.77560
O205        O  0.30611159  0.30740311  0.20448715    -0.58570
O206        O  0.38808780  0.39239690  0.22440312    -0.57020
O207        O  0.24270551  0.30892858  0.22944256    -0.57010
O208        O  0.32568989  0.33561802  0.25480620    -0.56180
O209        O  0.10211669  0.36732266  0.23017932    -0.57390
C210        C  0.03984344  0.41401713  0.22438252     0.75240
O211        O  0.99034213  0.30165268  0.20274664    -0.58550
C212        C  0.09885873  0.33486499  0.23060580     0.75210
C213        C  0.97967513  0.31009220  0.25073897     0.77600
Cd214      Cd  0.03321659  0.34105739  0.22501814     1.37470
O215        O  0.06844275  0.41303151  0.22921740    -0.57390
O216        O  0.01632927  0.33632790  0.25217615    -0.56200
C217        C  0.01738396  0.32170343  0.19289070     0.77560
O218        O  0.96807750  0.29432391  0.23756104    -0.58570
O219        O  0.01008615  0.38207573  0.21933090    -0.57020
O220        O  0.06405707  0.30400100  0.22906346    -0.57010
O221        O  0.05115869  0.34849673  0.19799334    -0.56180
O222        O  0.05714413  0.41292438  0.09159918    -0.57390
C223        C  0.10592153  0.35374037  0.09477230     0.75240
O224        O  0.98638277  0.30798960  0.11746653    -0.58550
C225        C  0.02417499  0.40889541  0.09096231     0.75210
C226        C  0.00566399  0.29539300  0.06797609     0.77600
Cd227      Cd  0.03146390  0.34411970  0.09498324     1.37460
O228        O  0.10369618  0.38222948  0.09108386    -0.57390
O229        O  0.02968246  0.33245985  0.06765589    -0.56200
C230        C  0.01469827  0.32504619  0.12711845     0.77560
O231        O  0.98926197  0.28053183  0.08083916    -0.58570
O232        O  0.07393469  0.32175496  0.09850504    -0.57020
O233        O  0.99355824  0.37394438  0.09194416    -0.57010
O234        O  0.04863889  0.35061190  0.12186355    -0.56180
O235        O  0.45904399  0.32670841  0.34624278    -0.57390
C236        C  0.55060035  0.37162167  0.32288676     0.75240
O237        O  0.45832443  0.23320740  0.31692165    -0.58550
C238        C  0.42745301  0.29531812  0.35057705     0.75210
C239        C  0.42384258  0.29749155  0.30028676     0.77600
Cd240      Cd  0.47311761  0.29823654  0.32450905     1.37460
O241        O  0.53358127  0.35506557  0.33538267    -0.57390
O242        O  0.42595388  0.31035518  0.31366838    -0.56200
C243        C  0.48233410  0.23306373  0.32602177     0.77560
O244        O  0.44603943  0.28580671  0.29771246    -0.58570
O245        O  0.53245692  0.35386513  0.31062492    -0.57020
O246        O  0.41794684  0.26442838  0.34329970    -0.57010
O247        O  0.50231120  0.26288726  0.33463101    -0.56180
O248        O  0.51073899  0.19896145  0.33513775    -0.57390
C249        C  0.55849154  0.12895321  0.32915419     0.75240
O250        O  0.43053531  0.07414791  0.34047001    -0.58550
C251        C  0.48601172  0.19952290  0.32658132     0.75210
C252        C  0.44820732  0.08306795  0.30090520     0.77600
Cd253      Cd  0.48814404  0.12996841  0.32780851     1.37460
O254        O  0.55658095  0.15149772  0.31985082    -0.57390
O255        O  0.48173458  0.11561060  0.29990087    -0.56200
C256        C  0.43995546  0.08689911  0.35408165     0.77560
O257        O  0.43406427  0.07271757  0.31432406    -0.58570
O258        O  0.52944255  0.10901972  0.33809959    -0.57020
O259        O  0.46386651  0.16920124  0.31849960    -0.57010
O260        O  0.47222618  0.12057952  0.35562278    -0.56180
O261        O  0.64333875  0.49552973  0.35103084    -0.57390
C262        C  0.58898670  0.40999052  0.32302259     0.75240
O263        O  0.69235408  0.53811173  0.30466863    -0.58550
C264        C  0.66589054  0.53266469  0.35139022     0.75210
C265        C  0.72593746  0.47459889  0.32512226     0.77600
Cd266      Cd  0.66261768  0.48702464  0.32515287     1.37460
O267        O  0.60398723  0.42769346  0.33559290    -0.57390
O268        O  0.70396943  0.46633714  0.33669637    -0.56200
C269        C  0.66065695  0.53524852  0.30146659     0.77560
O270        O  0.71859230  0.48804798  0.31355467    -0.58570
O271        O  0.60834725  0.42735883  0.31092343    -0.57020
O272        O  0.68859233  0.54888333  0.33994668    -0.57010
O273        O  0.63001247  0.50884555  0.30864027    -0.56180
O274        O  0.76490646  0.45377230  0.33618958    -0.57390
C275        C  0.83283760  0.40320321  0.32833701     0.75240
O276        O  0.87410848  0.53153637  0.31117501    -0.58550
C277        C  0.75943108  0.47067285  0.32531318     0.75210
C278        C  0.87244830  0.51907616  0.35398295     0.77600
Cd279      Cd  0.83127769  0.47272465  0.32709809     1.37460
O280        O  0.80361280  0.40142295  0.32236421    -0.57390
O281        O  0.83586080  0.49173616  0.35425186    -0.56200
C282        C  0.87523162  0.51271938  0.29991739     0.77560
O283        O  0.88998921  0.52476932  0.34130268    -0.58570
O284        O  0.85943747  0.43577230  0.33425038    -0.57020
O285        O  0.78524895  0.48556080  0.31481778    -0.57010
O286        O  0.85511945  0.47554612  0.30111297    -0.56180
O287        O  0.85006679  0.28324798  0.30260325    -0.57390
C288        C  0.77021541  0.22749682  0.33098536     0.75240
O289        O  0.85846478  0.30245994  0.35687482    -0.58550
C290        C  0.88736163  0.30148393  0.30257695     0.75210
C291        C  0.83657858  0.36973267  0.32833692     0.77600
Cd292      Cd  0.84510453  0.30377679  0.32906270     1.37470
O293        O  0.78666428  0.24382726  0.31838284    -0.57390
O294        O  0.81078712  0.33681857  0.32248293    -0.56200
C295        C  0.89107356  0.30613667  0.35494531     0.77560
O296        O  0.86636633  0.37260635  0.33410322    -0.58570
O297        O  0.78864803  0.24580800  0.34312014    -0.57020
O298        O  0.90504606  0.32236285  0.31431400    -0.57010
O299        O  0.90135801  0.30737537  0.34114584    -0.56180
O300        O  0.68162569  0.08865193  0.31148570    -0.57390
C301        C  0.73157000  0.18934021  0.33118395     0.75240
O302        O  0.59263995  0.10181681  0.33883245    -0.58550
C303        C  0.65049080  0.06852673  0.30346907     0.75210
C304        C  0.64841336  0.06144723  0.35419956     0.77600
Cd305      Cd  0.65570838  0.11355170  0.33003605     1.37470
O306        O  0.71367216  0.17293671  0.31878080    -0.57390
O307        O  0.65686922  0.05927147  0.34043848    -0.56200
C308        C  0.59187988  0.12486350  0.32945534     0.77560
O309        O  0.64309916  0.08827892  0.35703631    -0.58570
O310        O  0.71436780  0.17124088  0.34348223    -0.57020
O311        O  0.62138232  0.06934360  0.30767092    -0.57010
O312        O  0.62069150  0.14316922  0.32023009    -0.56180
O313        O  0.24651063  0.02009835  0.42450230    -0.57390
C314        C  0.20761866  0.90843063  0.42405162     0.75240
O315        O  0.34540815  0.01134250  0.41991246    -0.58550
C316        C  0.27592030  0.05360594  0.42864466     0.75210
C317        C  0.29033142  0.98082093  0.46224804     0.77600
Cd318      Cd  0.27856963  0.98558190  0.42996702     1.37460
O319        O  0.20981576  0.94009972  0.42252694    -0.57390
O320        O  0.26080918  0.97923194  0.45686314    -0.56200
C321        C  0.33574626  0.00869759  0.40590378     0.77560
O322        O  0.31541448  0.98448627  0.45263451    -0.58570
O323        O  0.23964422  0.91228217  0.42773127    -0.57020
O324        O  0.30557957  0.05495926  0.43365385    -0.57010
O325        O  0.29921941  0.99153871  0.40311503    -0.56180
O326        O  0.02583309  0.75343148  0.42180095    -0.57390
C327        C  0.91198950  0.68838804  0.42812514     0.75240
O328        O  0.96469948  0.62240720  0.41650444    -0.58550
C329        C  0.05736380  0.75499206  0.42329211     0.75210
C330        C  0.97550649  0.66717046  0.46102531     0.77600
Cd331      Cd  0.97911227  0.68419127  0.42863527     1.37470
O332        O  0.94608838  0.71792827  0.42451149    -0.57390
O333        O  0.96913995  0.69146214  0.45550289    -0.56200
C334        C  0.95119322  0.62733289  0.40425763     0.77560
O335        O  0.98473077  0.65041977  0.45146640    -0.58570
O336        O  0.90970831  0.65755538  0.43208624    -0.57020
O337        O  0.05278356  0.72276257  0.42667066    -0.57010
O338        O  0.95418099  0.65940543  0.40290514    -0.56180
O339        O  0.21046297  0.93813960  0.56480994    -0.57390
C340        C  0.29285024  0.05535739  0.56592345     0.75240
O341        O  0.32599698  0.96186666  0.57232098    -0.58550
C342        C  0.20686916  0.90686600  0.56042755     0.75210
C343        C  0.29640430  0.98416153  0.52827846     0.77600
Cd344      Cd  0.28323030  0.98113826  0.56079856     1.37460
O345        O  0.26033658  0.02222961  0.56785853    -0.57390
O346        O  0.26363214  0.97280329  0.53437935    -0.56200
C347        C  0.31245545  0.95844460  0.58578385     0.77560
O348        O  0.32539244  0.99588498  0.53737739    -0.58570
O349        O  0.32214541  0.05428926  0.56230298    -0.57020
O350        O  0.23842580  0.91071643  0.55632177    -0.57010
O351        O  0.29098906  0.97108771  0.58768570    -0.56180
O352        O  0.21384540  0.22448913  0.55907540    -0.57390
C353        C  0.29122102  0.19509481  0.56358562     0.75240
O354        O  0.32732387  0.30600503  0.53557747    -0.58550
C355        C  0.21303506  0.25355343  0.55498083     0.75210
C356        C  0.30981916  0.30714324  0.58509073     0.77600
Cd357      Cd  0.28622285  0.26080418  0.55735592     1.37470
O358        O  0.25895216  0.19177616  0.56145236    -0.57390
O359        O  0.27924309  0.27244506  0.58395898    -0.56200
C360        C  0.30898907  0.27915363  0.52548543     0.77560
O361        O  0.33247361  0.32040059  0.57341046    -0.58570
O362        O  0.32242820  0.22990512  0.56301884    -0.57020
O363        O  0.24587464  0.28497374  0.55165986    -0.57010
O364        O  0.28279509  0.24505416  0.53037175    -0.56180
O365        O  0.95615688  0.18781632  0.42073517    -0.57390
C366        C  0.07232063  0.26776089  0.42228057     0.75240
O367        O  0.97296387  0.29689143  0.41886816    -0.58550
C368        C  0.92567305  0.18144042  0.42744823     0.75210
C369        C  0.01017649  0.27629492  0.45968730     0.77600
Cd370      Cd  0.99871327  0.25873603  0.42747883     1.37470
O371        O  0.03901549  0.23548338  0.42033652    -0.57390
O372        O  0.00390183  0.24511470  0.45388460    -0.56200
C373        C  0.97571682  0.29227605  0.40465547     0.77560
O374        O  0.01164612  0.30092912  0.45043012    -0.58570
O375        O  0.07205832  0.29788620  0.42494851    -0.57020
O376        O  0.92946872  0.21067095  0.43410590    -0.57010
O377        O  0.99400334  0.27692511  0.40101808    -0.56180
O378        O  0.24379212  0.19328781  0.42539977    -0.57390
C379        C  0.21571905  0.27190720  0.42366623     0.75240
O380        O  0.32167385  0.31018960  0.44996627    -0.58550
C381        C  0.27372414  0.19247155  0.42813625     0.75210
C382        C  0.32836449  0.28600926  0.40044390     0.77600
Cd383      Cd  0.28143959  0.26557799  0.42771639     1.37460
O384        O  0.21213819  0.23941736  0.42487344    -0.57390
O385        O  0.29148744  0.26016004  0.40070444    -0.56200
C386        C  0.30278289  0.28247652  0.45970896     0.77560
O387        O  0.34336351  0.30750493  0.41236850    -0.58570
O388        O  0.25079439  0.30273169  0.42386956    -0.57020
O389        O  0.30594817  0.22524472  0.43091520    -0.57010
O390        O  0.27413509  0.24980530  0.45460751    -0.56180
O391        O  0.95754853  0.18716135  0.56426215    -0.57390
C392        C  0.07180109  0.25194156  0.55794711     0.75240
O393        O  0.00559577  0.29288509  0.53486969    -0.58550
C394        C  0.92616276  0.18560128  0.56217873     0.75210
C395        C  0.02968329  0.30842650  0.58360909     0.77600
Cd396      Cd  0.00448743  0.25571358  0.55792897     1.37460
O397        O  0.03804489  0.22255520  0.56195148    -0.57390
O398        O  0.01942110  0.27323018  0.58469502    -0.56200
C399        C  0.00974313  0.27156587  0.52563758     0.77560
O400        O  0.02432299  0.31870610  0.57060410    -0.58570
O401        O  0.07402965  0.28283588  0.55421539    -0.57020
O402        O  0.93072108  0.21784355  0.55870442    -0.57010
O403        O  0.00857849  0.24286514  0.53145712    -0.56180
O404        O  0.73979942  0.92179484  0.56182351    -0.57390
C405        C  0.77624017  0.03232088  0.56199681     0.75240
O406        O  0.66899412  0.95627836  0.53551198    -0.58550
C407        C  0.70891599  0.88722337  0.56021636     0.75210
C408        C  0.65331088  0.93289788  0.58413907     0.77600
Cd409      Cd  0.70522700  0.95446994  0.55843479     1.37470
O410        O  0.77394953  0.00117486  0.56514455    -0.57390
O411        O  0.68969400  0.94682034  0.58549831    -0.56200
C412        C  0.68792483  0.94911957  0.52617451     0.77560
O413        O  0.64132668  0.93308171  0.57070441    -0.58570
O414        O  0.74420855  0.02790348  0.55792823    -0.57020
O415        O  0.67701813  0.88437527  0.55768287    -0.57010
O416        O  0.71407480  0.94570127  0.53201956    -0.56180
O417        O  0.93564152  0.69357876  0.56894385    -0.57390
C418        C  0.05363667  0.75615641  0.55850452     0.75240
O419        O  0.99703566  0.63299341  0.57151688    -0.58550
C420        C  0.90416077  0.66076723  0.56549530     0.75210
C421        C  0.97276982  0.66180944  0.52707372     0.77600
Cd422      Cd  0.98139909  0.67806564  0.55944314     1.37470
O423        O  0.02139372  0.75056171  0.56291573    -0.57390
O424        O  0.97245581  0.68951442  0.53312966    -0.56200
C425        C  0.00478711  0.64988348  0.58452528     0.77560
O426        O  0.97789186  0.64074238  0.53608477    -0.58570
O427        O  0.05166570  0.72576985  0.55416167    -0.57020
O428        O  0.90817544  0.63469801  0.56006165    -0.57010
O429        O  0.99722458  0.67548637  0.58598635    -0.56180
O430        O  0.77073950  0.69453875  0.56682655    -0.57390
C431        C  0.71285698  0.74940881  0.55934938     0.75240
O432        O  0.66864703  0.63804417  0.53501958    -0.58550
C433        C  0.76488381  0.66162096  0.56358996     0.75210
C434        C  0.65397968  0.64771461  0.58522662     0.77600
Cd435      Cd  0.70502737  0.67619786  0.55887068     1.37470
O436        O  0.74296585  0.74862728  0.56175350    -0.57390
O437        O  0.69104455  0.67240774  0.58607311    -0.56200
C438        C  0.69440564  0.66521108  0.52616866     0.77560
O439        O  0.64025369  0.63221801  0.57208782    -0.58570
O440        O  0.68058920  0.71676443  0.55650078    -0.57020
O441        O  0.73060601  0.63469386  0.55882575    -0.57010
O442        O  0.72292364  0.69571406  0.53265637    -0.56180
O443        O  0.71963810  0.91610326  0.41967091    -0.57390
C444        C  0.77253157  0.03133213  0.42738442     0.75240
O445        O  0.65193294  0.97285495  0.41592050    -0.58550
C446        C  0.68693251  0.88295908  0.42125192     0.75210
C447        C  0.68297690  0.94759245  0.45988897     0.77600
Cd448      Cd  0.69687897  0.95667246  0.42748003     1.37460
O449        O  0.76894316  0.00002266  0.42311458    -0.57390
O450        O  0.71513994  0.95786291  0.45354368    -0.56200
C451        C  0.66424671  0.97462584  0.40233792     0.77560
O452        O  0.65559965  0.94246287  0.45109259    -0.58570
O453        O  0.74112577  0.02747550  0.43176749    -0.57020
O454        O  0.65772378  0.88391687  0.42512102    -0.57010
O455        O  0.68781800  0.96443512  0.40078002    -0.56180
O456        O  0.72226084  0.74747025  0.42073920    -0.57390
C457        C  0.76895954  0.68482700  0.42771574     0.75240
O458        O  0.65740291  0.64348425  0.45071069    -0.58550
C459        C  0.68961895  0.74406215  0.42092442     0.75210
C460        C  0.66946361  0.62896749  0.40059530     0.77600
Cd461      Cd  0.69679651  0.67980924  0.42692027     1.37460
O462        O  0.76915138  0.71495298  0.42439057    -0.57390
O463        O  0.69591522  0.66553931  0.39989462    -0.56200
C464        C  0.68531753  0.66813357  0.45961737     0.77560
O465        O  0.65177297  0.61590525  0.41342566    -0.58570
O466        O  0.73555545  0.65338212  0.43035037    -0.57020
O467        O  0.65905961  0.70971115  0.42355522    -0.57010
O468        O  0.71529613  0.69738127  0.45318719    -0.56180
O469        O  0.69425690  0.08205316  0.90076882    -0.57390
C470        C  0.57799715  0.00337666  0.90074914     0.75240
O471        O  0.63403335  0.96849494  0.87152797    -0.58550
C472        C  0.72532163  0.08659261  0.89540112     0.75210
C473        C  0.67153839  0.97512286  0.91814794     0.77600
Cd474      Cd  0.65089885  0.01050764  0.89508247     1.37460
O475        O  0.61181480  0.03487703  0.90306276    -0.57390
O476        O  0.65462949  0.99196231  0.92162225    -0.56200
C477        C  0.64102852  0.99618248  0.86260170     0.77560
O478        O  0.67443602  0.97040738  0.90394040    -0.58570
O479        O  0.57751510  0.97339697  0.89694734    -0.57020
O480        O  0.72145623  0.05614854  0.88998454    -0.57010
O481        O  0.65283864  0.02876494  0.86882964    -0.56180
O482        O  0.87619924  0.26637544  0.75543656    -0.57390
C483        C  0.94169246  0.38410444  0.76203914     0.75240
O484        O  0.98250856  0.32073974  0.78631858    -0.58550
C485        C  0.87730825  0.23657859  0.75735902     0.75210
C486        C  0.99882810  0.34012032  0.73750467     0.77600
Cd487      Cd  0.94460786  0.31626817  0.76273961     1.37470
O488        O  0.91156519  0.35045803  0.75839587    -0.57390
O489        O  0.96347408  0.32960254  0.73589241    -0.56200
C490        C  0.95745587  0.31935861  0.79537225     0.77560
O491        O  0.00896494  0.33690834  0.75093070    -0.58570
O492        O  0.97220988  0.38546303  0.76587782    -0.57020
O493        O  0.91041689  0.24353801  0.76149349    -0.57010
O494        O  0.92695640  0.31407262  0.78914750    -0.56180
O495        O  0.69820496  0.08210973  0.75529717    -0.57390
C496        C  0.58384545  0.02165534  0.76154625     0.75240
O497        O  0.61655508  0.94683818  0.75388983    -0.58550
C498        C  0.72880245  0.08297835  0.75856368     0.75210
C499        C  0.64566623  0.00080959  0.79627954     0.77600
Cd500      Cd  0.64928355  0.01474636  0.76369705     1.37460
O501        O  0.61883029  0.05154760  0.75947219    -0.57390
O502        O  0.64148359  0.02598999  0.79007453    -0.56200
C503        C  0.62199482  0.95658423  0.73983888     0.77560
O504        O  0.65349768  0.98195935  0.78722697    -0.58570
O505        O  0.58004417  0.98959292  0.76437728    -0.57020
O506        O  0.72271823  0.05113484  0.76367487    -0.57010
O507        O  0.64413849  0.99307566  0.73695018    -0.56180
O508        O  0.88724823  0.55798333  0.89147947    -0.57390
C509        C  0.96649781  0.53013043  0.89843538     0.75240
O510        O  0.00154770  0.63792776  0.87037429    -0.58550
C511        C  0.88740820  0.58883811  0.89143280     0.75210
C512        C  0.98181471  0.63864855  0.92101601     0.77600
Cd513      Cd  0.95984188  0.59489714  0.89271534     1.37460
O514        O  0.93391894  0.52697657  0.89838516    -0.57390
O515        O  0.95403517  0.60262845  0.91983369    -0.56200
C516        C  0.97874393  0.61186612  0.86052710     0.77560
O517        O  0.00351352  0.65437256  0.90915149    -0.58570
O518        O  0.99731267  0.56455716  0.89628120    -0.57020
O519        O  0.92073598  0.62162435  0.89142480    -0.57010
O520        O  0.94966483  0.57973171  0.86580344    -0.56180
O521        O  0.92938751  0.35289201  0.90294294    -0.57390
C522        C  0.87517666  0.23948314  0.89346816     0.75240
O523        O  0.99215767  0.32426029  0.87064712    -0.58550
C524        C  0.96101817  0.38627356  0.90054684     0.75210
C525        C  0.98041335  0.28858113  0.91904117     0.77600
Cd526      Cd  0.95199093  0.31287000  0.89448523     1.37470
O527        O  0.87976095  0.27089891  0.89819720    -0.57390
O528        O  0.95386037  0.29484996  0.92075369    -0.56200
C529        C  0.96553678  0.32082649  0.86185935     0.77560
O530        O  0.99865307  0.29879252  0.90627727    -0.58570
O531        O  0.90615616  0.24244900  0.88900123    -0.57020
O532        O  0.99075055  0.38616265  0.89664341    -0.57010
O533        O  0.93460489  0.31370792  0.86837470    -0.56180
O534        O  0.92097612  0.53033699  0.75875019    -0.57390
C535        C  0.89107912  0.60711105  0.75710020     0.75240
O536        O  0.99536299  0.64368154  0.78511682    -0.58550
C537        C  0.95067435  0.52959672  0.76211899     0.75210
C538        C  0.00769865  0.62858758  0.73532362     0.77600
Cd539      Cd  0.95737605  0.60242522  0.76185439     1.37470
O540        O  0.88936474  0.57561604  0.75592768    -0.57390
O541        O  0.97055934  0.60417057  0.73456969    -0.56200
C542        C  0.97280787  0.61566521  0.79433194     0.77560
O543        O  0.02154559  0.64565374  0.74819387    -0.58570
O544        O  0.92508276  0.63836129  0.75966803    -0.57020
O545        O  0.98214073  0.56229028  0.76550472    -0.57010
O546        O  0.94318238  0.58493940  0.78844141    -0.56180
O547        O  0.63526898  0.52496142  0.75582554    -0.57390
C548        C  0.74948596  0.60607514  0.75427641     0.75240
O549        O  0.65624444  0.63972429  0.74839364    -0.58550
C550        C  0.60282756  0.51992927  0.75955742     0.75210
C551        C  0.67996608  0.61486883  0.79144907     0.77600
Cd552      Cd  0.67561003  0.59734477  0.75923328     1.37470
O553        O  0.71611990  0.57345856  0.75311818    -0.57390
O554        O  0.66471061  0.58066027  0.78611747    -0.56200
C555        C  0.65313848  0.62798823  0.73467101     0.77560
O556        O  0.69512643  0.64291515  0.78180393    -0.58570
O557        O  0.74894900  0.63603087  0.75681737    -0.57020
O558        O  0.60451486  0.55072777  0.76295623    -0.57010
O559        O  0.66472544  0.60578838  0.73225724    -0.56180
O560        O  0.71319722  0.55945456  0.88686104    -0.57390
C561        C  0.60431682  0.52728319  0.89604472     0.75240
O562        O  0.69624472  0.65629911  0.90255560    -0.58550
C563        C  0.74809171  0.58956609  0.88876360     0.75210
C564        C  0.68129759  0.61452947  0.85728524     0.77600
Cd565      Cd  0.68225271  0.59604439  0.88923762     1.37470
O566        O  0.63525600  0.52745008  0.89657538    -0.57390
O567        O  0.66064311  0.58003534  0.86268501    -0.56200
C568        C  0.70304097  0.64680912  0.91546786     0.77560
O569        O  0.70167150  0.64204654  0.86688033    -0.58570
O570        O  0.60944729  0.55999097  0.89287998    -0.57020
O571        O  0.75210643  0.62204021  0.89057107    -0.57010
O572        O  0.69664281  0.61299033  0.91622898    -0.56180
O573        O  0.45151374  0.34676154  0.89741316    -0.57390
C574        C  0.38537731  0.23053731  0.89237852     0.75240
O575        O  0.31821952  0.27728313  0.90404734    -0.58550
C576        C  0.45146557  0.37722570  0.89565772     0.75210
C577        C  0.36380230  0.29179762  0.85878039     0.77600
Cd578      Cd  0.38178024  0.29785298  0.89121523     1.37470
O579        O  0.41617866  0.26493450  0.89446019    -0.57390
O580        O  0.39001324  0.28831348  0.86451313    -0.56200
C581        C  0.32932239  0.27403456  0.91726986     0.77560
O582        O  0.34549212  0.29963725  0.86817264    -0.58570
O583        O  0.35361587  0.22808177  0.88988689    -0.57020
O584        O  0.41836966  0.37108866  0.89218538    -0.57010
O585        O  0.36484703  0.28482467  0.91828366    -0.56180
O586        O  0.39949185  0.25457432  0.75290044    -0.57390
C587        C  0.45073100  0.36870982  0.76029238     0.75240
O588        O  0.32959382  0.30940306  0.74846846    -0.58550
C589        C  0.36790246  0.22095243  0.75506050     0.75210
C590        C  0.35785579  0.28488279  0.79265854     0.77600
Cd591      Cd  0.37487278  0.29378697  0.76025926     1.37470
O592        O  0.44728477  0.33743130  0.75614566    -0.57390
O593        O  0.38901356  0.29077942  0.78687222    -0.56200
C594        C  0.34194055  0.31159871  0.73488646     0.77560
O595        O  0.33316201  0.28351090  0.78335163    -0.58570
O596        O  0.41935190  0.36479743  0.76473115    -0.57020
O597        O  0.33764383  0.22058232  0.75854307    -0.57010
O598        O  0.36527925  0.30105341  0.73316931    -0.56180
O599        O  0.39536373  0.07995078  0.75678754    -0.57390
C600        C  0.44125463  0.01817771  0.76109881     0.75240
O601        O  0.32353082  0.97850966  0.78516794    -0.58550
C602        C  0.36300284  0.07725806  0.75698701     0.75210
C603        C  0.33887912  0.95812509  0.73626391     0.77600
Cd604      Cd  0.36804925  0.01113294  0.76217996     1.37470
O605        O  0.44053402  0.04803255  0.75833688    -0.57390
O606        O  0.35837026  0.99509374  0.73465957    -0.56200
C607        C  0.35236469  0.99509607  0.79459750     0.77560
O608        O  0.32801470  0.94505772  0.74984015    -0.58570
O609        O  0.40877611  0.98682135  0.76477109    -0.57020
O610        O  0.33207063  0.04303830  0.75928926    -0.57010
O611        O  0.38633290  0.01915286  0.78900677    -0.56180
O612        O  0.44251232  0.04086518  0.89734492    -0.57390
C613        C  0.37986184  0.08698255  0.89169433     0.75240
O614        O  0.32906228  0.97505734  0.87052376    -0.58550
C615        C  0.43966283  0.00867143  0.89763229     0.75210
C616        C  0.32553573  0.98787170  0.91995778     0.77600
Cd617      Cd  0.37365335  0.01429140  0.89260986     1.37470
O618        O  0.40915590  0.08633375  0.89582153    -0.57390
O619        O  0.36162103  0.01633678  0.91968165    -0.56200
C620        C  0.35611496  0.99394334  0.86053487     0.77560
O621        O  0.31199330  0.96776422  0.90765856    -0.58570
O622        O  0.34947366  0.05461037  0.88727747    -0.57020
O623        O  0.40488446  0.97760077  0.89624347    -0.57010
O624        O  0.39033448  0.02002016  0.86550212    -0.56180
O625        O  0.13202677  0.64351757  0.68405844    -0.57390
C626        C  0.21776688  0.70732588  0.65523815     0.75240
O627        O  0.13144788  0.57012585  0.64764207    -0.58550
C628        C  0.09537670  0.62865878  0.68309940     0.75210
C629        C  0.09707153  0.63689036  0.63182813     0.77600
Cd630      Cd  0.14142643  0.63235469  0.65687219     1.37470
O631        O  0.19385852  0.69735607  0.66626748    -0.57390
O632        O  0.12552152  0.66679968  0.63863894    -0.56200
C633        C  0.15216053  0.56791314  0.65782125     0.77560
O634        O  0.09020408  0.60408292  0.63599462    -0.58570
O635        O  0.20691511  0.68242463  0.64445771    -0.57020
O636        O  0.07950889  0.61289118  0.67034504    -0.57010
O637        O  0.16880448  0.59569514  0.66748836    -0.56180
O638        O  0.26510882  0.76927460  0.66657457    -0.57390
C639        C  0.33688539  0.86784620  0.68480313     0.75240
O640        O  0.39744122  0.83932448  0.65079210    -0.58550
C641        C  0.25604100  0.74600044  0.65540659     0.75210
C642        C  0.32916969  0.86783543  0.63259103     0.77600
Cd643      Cd  0.33089061  0.82253987  0.65782373     1.37470
O644        O  0.32954916  0.83373594  0.68591164    -0.57390
O645        O  0.30002931  0.84624300  0.64141901    -0.56200
C646        C  0.39611001  0.81292547  0.65877460     0.77560
O647        O  0.35919604  0.86698159  0.63486961    -0.58570
O648        O  0.34329382  0.88170762  0.67134424    -0.57020
O649        O  0.28149658  0.75783936  0.64477998    -0.57010
O650        O  0.36462671  0.79046002  0.66627201    -0.56180
O651        O  0.34999638  0.43790395  0.63874066    -0.57390
C652        C  0.39850360  0.52504844  0.66458938     0.75240
O653        O  0.26086493  0.43549494  0.67130337    -0.58550
C654        C  0.32028986  0.40348887  0.63593395     0.75210
C655        C  0.32784349  0.40012480  0.68651405     0.77600
Cd656      Cd  0.32474648  0.44792544  0.66268101     1.37470
O657        O  0.38145758  0.50851329  0.65208481    -0.57390
O658        O  0.34324519  0.40551745  0.67338517    -0.56200
C659        C  0.25995204  0.45841954  0.66191438     0.77560
O660        O  0.31076658  0.41740515  0.68892913    -0.58570
O661        O  0.38118992  0.50646897  0.67681659    -0.57020
O662        O  0.29145717  0.38992066  0.64516569    -0.57010
O663        O  0.28871037  0.47659658  0.65269314    -0.56180
O664        O  0.22456915  0.48512337  0.65231048    -0.57390
C665        C  0.15544337  0.53410838  0.65854864     0.75240
O666        O  0.11039601  0.40093791  0.64781969    -0.58550
C667        C  0.22659559  0.46266059  0.66162874     0.75210
C668        C  0.10661270  0.42410757  0.68697243     0.77600
Cd669      Cd  0.15601660  0.46373478  0.66046457     1.37470
O670        O  0.17853987  0.53262569  0.66778498    -0.57390
O671        O  0.14089337  0.45556889  0.68839371    -0.56200
C672        C  0.11568210  0.41423855  0.63427821     0.77560
O673        O  0.09521044  0.41243008  0.67332381    -0.58570
O674        O  0.13426220  0.50431650  0.65007396    -0.57020
O675        O  0.19772433  0.44303402  0.67065756    -0.57010
O676        O  0.14003386  0.45111156  0.63263474    -0.56180
O677        O  0.47966296  0.74041087  0.65147962    -0.57390
C678        C  0.42984171  0.80935280  0.65944522     0.75240
O679        O  0.55375810  0.86467589  0.67439468    -0.58550
C680        C  0.49965342  0.73631656  0.66144093     0.75210
C681        C  0.54890209  0.84829911  0.63514228     0.77600
Cd682      Cd  0.49940012  0.80702182  0.66108206     1.37470
O683        O  0.42902415  0.78262980  0.66705323    -0.57390
O684        O  0.51225447  0.82224242  0.63327939    -0.56200
C685        C  0.54043754  0.85414206  0.68788503     0.77560
O686        O  0.56183203  0.85477692  0.64878863    -0.58570
O687        O  0.46172447  0.83364854  0.65251480    -0.57020
O688        O  0.51703829  0.76311459  0.67144988    -0.57010
O689        O  0.50670049  0.82177563  0.68906748    -0.56180
O690        O  0.52151252  0.61635469  0.63658925    -0.57390
C691        C  0.43677867  0.56351571  0.66443690     0.75240
O692        O  0.54482767  0.65464510  0.68777882    -0.58550
C693        C  0.55829524  0.64190533  0.63533740     0.75210
C694        C  0.50362179  0.70294088  0.66140656     0.77600
Cd695      Cd  0.51346649  0.63791718  0.66192553     1.37460
O696        O  0.45267231  0.58001775  0.65181664    -0.57390
O697        O  0.48750963  0.67606646  0.65135681    -0.56200
C698        C  0.56286602  0.63815158  0.68589289     0.77560
O699        O  0.52427155  0.70012212  0.67140210    -0.58570
O700        O  0.45584058  0.58156790  0.67650418    -0.57020
O701        O  0.57438637  0.66719751  0.64603354    -0.57010
O702        O  0.55640449  0.62021268  0.67326763    -0.56180
C703        C  0.33961708  0.90268002  0.72578037    -0.08730
C704        C  0.33312988  0.93226352  0.72321387     0.07460
C705        C  0.32762564  0.94017524  0.70799661    -0.02500
C706        C  0.32906334  0.91893064  0.69574229    -0.06950
C707        C  0.33644282  0.88987510  0.69825282     0.06580
C708        C  0.34198952  0.88203249  0.71352051    -0.01970
Br709      Br  0.35673545  0.84650482  0.71842291    -0.01670
H710        H  0.34510715  0.89707520  0.73735492     0.10490
H711        H  0.32424080  0.92515947  0.68416154     0.08510
Br712      Br  0.31693515  0.97884491  0.70330052    -0.02100
C713        C  0.37466002  0.98146094  0.83534607    -0.08730
C714        C  0.34915223  0.98697451  0.84383212     0.07460
C715        C  0.32167579  0.99128085  0.83595904    -0.02500
C716        C  0.32092137  0.99109238  0.81978136    -0.06950
C717        C  0.34787275  0.98747441  0.81133340     0.06580
C718        C  0.37415082  0.98154860  0.81927585    -0.01970
Br719      Br  0.41041474  0.97382775  0.80872426    -0.01670
H720        H  0.39597793  0.97826229  0.84126627     0.10490
H721        H  0.30110959  0.99638368  0.81383087     0.08510
Br722      Br  0.28851935  0.00278386  0.84670911    -0.02100
C723        C  0.30223136  0.35938747  0.71051632    -0.08730
C724        C  0.32961074  0.37492306  0.69830854     0.07460
C725        C  0.35809080  0.36586076  0.69765794    -0.02500
C726        C  0.35951499  0.34318546  0.70924096    -0.06950
C727        C  0.33342298  0.32913142  0.72181997     0.06580
C728        C  0.30372140  0.33652132  0.72215054    -0.01970
Br729      Br  0.26378574  0.31556525  0.73782726    -0.01670
H730        H  0.27949598  0.36506285  0.71104355     0.10490
H731        H  0.38269675  0.33813231  0.70870448     0.08510
Br732      Br  0.39833363  0.38562128  0.68208261    -0.02100
C733        C  0.33001377  0.14742687  0.75383612    -0.08730
C734        C  0.36679349  0.18426636  0.75413122     0.07460
C735        C  0.40174800  0.18503054  0.75451187    -0.02500
C736        C  0.39922996  0.14981193  0.75492919    -0.06950
C737        C  0.36258656  0.11297315  0.75513698     0.06580
C738        C  0.32755600  0.11201272  0.75427994    -0.01970
Br739      Br  0.27540673  0.06392918  0.75365159    -0.01670
H740        H  0.30285491  0.14607390  0.75344201     0.10490
H741        H  0.42655213  0.15151574  0.75556412     0.08510
Br742      Br  0.45440979  0.23252324  0.75558030    -0.02100
C743        C  0.34873000  0.15794419  0.89176231    -0.08730
C744        C  0.38545400  0.19460662  0.89269648     0.07460
C745        C  0.42034451  0.19539106  0.89369011    -0.02500
C746        C  0.41773269  0.16000974  0.89335479    -0.06950
C747        C  0.38097365  0.12347694  0.89210094     0.06580
C748        C  0.34607592  0.12270738  0.89155401    -0.01970
Br749      Br  0.29336414  0.07510851  0.89122782    -0.01670
H750        H  0.32149461  0.15643613  0.89127099     0.10490
H751        H  0.44477318  0.16117179  0.89395631     0.08510
Br752      Br  0.47259203  0.24307618  0.89533644    -0.02100
C753        C  0.36666694  0.26389059  0.83410714    -0.08730
C754        C  0.35579036  0.28616766  0.84197804     0.07460
C755        C  0.34009452  0.30357951  0.83343176    -0.02500
C756        C  0.33831151  0.30070338  0.81728076    -0.06950
C757        C  0.35206633  0.28081337  0.80949285     0.06580
C758        C  0.36486431  0.26101648  0.81811533    -0.01970
Br759      Br  0.38021940  0.22934578  0.80871472    -0.01670
H760        H  0.37751644  0.24912039  0.84041866     0.10490
H761        H  0.32830801  0.31595038  0.81077222     0.08510
Br762      Br  0.32387825  0.33433981  0.84286277    -0.02100
C763        C  0.53120061  0.48776189  0.89183767    -0.08730
C764        C  0.56424426  0.49032699  0.89811574     0.07460
C765        C  0.55852983  0.45634883  0.90499514    -0.02500
C766        C  0.52126336  0.42055768  0.90450014    -0.06950
C767        C  0.48870069  0.41730486  0.89737845     0.06580
C768        C  0.49373983  0.45185223  0.89140002    -0.01970
Br769      Br  0.45194200  0.45217188  0.88154287    -0.01670
H770        H  0.53480305  0.51348281  0.88659267     0.10490
H771        H  0.51799121  0.39479546  0.90954457     0.08510
Br772      Br  0.59985075  0.45621768  0.91544171    -0.02100
C773        C  0.63842233  0.62792315  0.70693210    -0.08730
C774        C  0.63473655  0.63706403  0.72213542     0.07460
C775        C  0.60971330  0.64981696  0.72498661    -0.02500
C776        C  0.58755143  0.65086250  0.71293840    -0.06950
C777        C  0.58948419  0.63943215  0.69791245     0.06580
C778        C  0.61643405  0.62913621  0.69488893    -0.01970
Br779      Br  0.62555567  0.61675353  0.67469927    -0.01670
H780        H  0.65791760  0.61874982  0.70439388     0.10490
H781        H  0.56765404  0.65951875  0.71549263     0.08510
Br782      Br  0.60189801  0.66380442  0.74506716    -0.02100
C783        C  0.52946785  0.47918738  0.75910438    -0.08730
C784        C  0.56453271  0.48066284  0.75976684     0.07460
C785        C  0.56171673  0.44487921  0.76064288    -0.02500
C786        C  0.52441933  0.40891098  0.76069463    -0.06950
C787        C  0.48940134  0.40754919  0.76005245     0.06580
C788        C  0.49227840  0.44334738  0.75917842    -0.01970
Br789      Br  0.44713040  0.44601262  0.75717093    -0.01670
H790        H  0.53087785  0.50620890  0.75827958     0.10490
H791        H  0.52282594  0.38179008  0.76149770     0.08510
Br792      Br  0.60705515  0.44258714  0.76260047    -0.02100
C793        C  0.71458590  0.64770613  0.81603717    -0.08730
C794        C  0.67937637  0.62054805  0.80813843     0.07460
C795        C  0.64447940  0.59512214  0.81656262    -0.02500
C796        C  0.64557007  0.59562508  0.83258409    -0.06950
C797        C  0.68108040  0.62098239  0.84058370     0.06580
C798        C  0.71581321  0.64785762  0.83219929    -0.01970
Br799      Br  0.76645656  0.68154789  0.84200068    -0.01670
H800        H  0.74171572  0.66695041  0.80964395     0.10490
H801        H  0.61862094  0.57499527  0.83884761     0.08510
Br802      Br  0.59444659  0.55840197  0.80675867    -0.02100
C803        C  0.09053090  0.64020337  0.71086867    -0.08730
C804        C  0.07299146  0.63032040  0.69617033     0.07460
C805        C  0.03521514  0.62343661  0.69438108    -0.02500
C806        C  0.01568645  0.62533136  0.70718306    -0.06950
C807        C  0.03277156  0.63410725  0.72194033     0.06580
C808        C  0.07086975  0.64191419  0.72367406    -0.01970
Br809      Br  0.09645320  0.65141535  0.74330028    -0.01670
H810        H  0.11944676  0.64567077  0.71254273     0.10490
H811        H  0.98639802  0.61907156  0.70561789     0.08510
Br812      Br  0.00826530  0.61181214  0.67493591    -0.02100
C813        C  0.85796150  0.64147757  0.75162977    -0.08730
C814        C  0.85493314  0.60685647  0.75578631     0.07460
C815        C  0.81708031  0.57242692  0.75893439    -0.02500
C816        C  0.78362325  0.57310077  0.75772194    -0.06950
C817        C  0.78644749  0.60762833  0.75378116     0.06580
C818        C  0.82418295  0.64218506  0.75061215    -0.01970
Br819      Br  0.83163434  0.69069387  0.74438147    -0.01670
H820        H  0.88673693  0.66813119  0.74911538     0.10490
H821        H  0.75509186  0.54646122  0.76052125     0.08510
Br822      Br  0.80827499  0.52397543  0.76629956    -0.02100
C823        C  0.81253049  0.61165280  0.90010671    -0.08730
C824        C  0.78258169  0.58741901  0.88945933     0.07460
C825        C  0.78667773  0.56250095  0.87978019    -0.02500
C826        C  0.82058852  0.56227552  0.88091417    -0.06950
C827        C  0.85077574  0.58713467  0.89137872     0.06580
C828        C  0.84640765  0.61163831  0.90116550    -0.01970
Br829      Br  0.88483709  0.64433828  0.91666270    -0.01670
H830        H  0.80943265  0.63053492  0.90774491     0.10490
H831        H  0.82409087  0.54378646  0.87321111     0.08510
Br832      Br  0.74897880  0.53117044  0.86392001    -0.02100
C833        C  0.97225309  0.58292203  0.83503558    -0.08730
C834        C  0.98438511  0.61679413  0.84363419     0.07460
C835        C  0.99659213  0.65198505  0.83575547    -0.02500
C836        C  0.99458594  0.65200444  0.81956231    -0.06950
C837        C  0.98007312  0.61722188  0.81110985     0.06580
C838        C  0.97006811  0.58277858  0.81904390    -0.01970
Br839      Br  0.95345252  0.53421038  0.80883306    -0.01670
H840        H  0.96337567  0.55578831  0.84085668     0.10490
H841        H  0.00246148  0.67868761  0.81364194     0.08510
Br842      Br  0.01229667  0.69945773  0.84646732    -0.02100
C843        C  0.93040193  0.45783020  0.90114759    -0.08730
C844        C  0.96708947  0.49456035  0.90040474     0.07460
C845        C  0.00207363  0.49538217  0.90074884    -0.02500
C846        C  0.99945393  0.45988588  0.90132014    -0.06950
C847        C  0.96255936  0.42314566  0.90156835     0.06580
C848        C  0.92770508  0.42256175  0.90160089    -0.01970
Br849      Br  0.87480840  0.37524024  0.90102854    -0.01670
H850        H  0.90308752  0.45619003  0.90087140     0.10490
H851        H  0.02653413  0.46107201  0.90129878     0.08510
Br852      Br  0.05431878  0.54332525  0.90026864    -0.02100
C853        C  0.62296726  0.93241367  0.71384917    -0.08730
C854        C  0.60201106  0.92739775  0.72735510     0.07460
C855        C  0.56116060  0.89720207  0.72800691    -0.02500
C856        C  0.54204915  0.87308948  0.71518375    -0.06950
C857        C  0.56273801  0.87863410  0.70148306     0.06580
C858        C  0.60398344  0.90824073  0.70102849    -0.01970
Br859      Br  0.63682442  0.91709119  0.68357620    -0.01670
H860        H  0.65435190  0.95556870  0.71322703     0.10490
H861        H  0.51043204  0.85080023  0.71577113     0.08510
Br862      Br  0.52889872  0.89019278  0.74540047    -0.02100
C863        C  0.51198022  0.98723197  0.75780086    -0.08730
C864        C  0.54859752  0.02286318  0.76064127     0.07460
C865        C  0.54985249  0.05747970  0.76300815    -0.02500
C866        C  0.51462734  0.05554628  0.76272515    -0.06950
C867        C  0.47794318  0.01957201  0.76029365     0.06580
C868        C  0.47695011  0.98521758  0.75757687    -0.01970
Br869      Br  0.42938023  0.93455820  0.75290568    -0.01670
H870        H  0.51045054  0.96046031  0.75570919     0.10490
H871        H  0.51582845  0.08210798  0.76488742     0.08510
Br872      Br  0.59781394  0.10760281  0.76771294    -0.02100
C873        C  0.04096462  0.37092535  0.69722899    -0.08730
C874        C  0.08060418  0.40167177  0.70026910     0.07460
C875        C  0.09383425  0.40924590  0.71574631    -0.02500
C876        C  0.06714025  0.38726283  0.72765206    -0.06950
C877        C  0.02716631  0.35779662  0.72455359     0.06580
C878        C  0.01440123  0.34916260  0.70909933    -0.01970
Br879      Br  0.96133866  0.30746568  0.70327067    -0.01670
H880        H  0.03017633  0.36388403  0.68548922     0.10490
H881        H  0.07743194  0.39429748  0.73945613     0.08510
Br882      Br  0.14753357  0.44879850  0.72166928    -0.02100
C883        C  0.97904272  0.45647731  0.76437280    -0.08730
C884        C  0.94242856  0.42048814  0.76185776     0.07460
C885        C  0.90852233  0.42081152  0.75936824    -0.02500
C886        C  0.91201111  0.45664532  0.75952183    -0.06950
C887        C  0.94871528  0.49259155  0.76209327     0.06580
C888        C  0.98261877  0.49216533  0.76448593    -0.01970
Br889      Br  0.03532096  0.53849915  0.76773089    -0.01670
H890        H  0.00554303  0.45711602  0.76620916     0.10490
H891        H  0.88566380  0.45626765  0.75765952     0.08510
Br892      Br  0.85645432  0.37401736  0.75591832    -0.02100
C893        C  0.99001335  0.31793535  0.81960784    -0.08730
C894        C  0.96285445  0.32355409  0.81231918     0.07460
C895        C  0.94055077  0.33257488  0.82151085    -0.02500
C896        C  0.94352929  0.33281601  0.83745872    -0.06950
C897        C  0.96868863  0.32479288  0.84485417     0.06580
C898        C  0.99325944  0.31867486  0.83574566    -0.01970
Br899      Br  0.03026041  0.30935464  0.84447682    -0.01670
H900        H  0.00803410  0.31187211  0.81276890     0.10490
H901        H  0.92542317  0.33902975  0.84417088     0.08510
Br902      Br  0.90579579  0.34597146  0.81345564    -0.02100
C903        C  0.83833860  0.16519396  0.76411000    -0.08730
C904        C  0.84127227  0.19587420  0.75566650     0.07460
C905        C  0.80833383  0.18748946  0.74685913    -0.02500
C906        C  0.77284210  0.15004108  0.74751235    -0.06950
C907        C  0.76897515  0.11998336  0.75673668     0.06580
C908        C  0.80272101  0.12758479  0.76476190    -0.01970
Br909      Br  0.80191834  0.08947672  0.77781016    -0.01670
H910        H  0.86332938  0.17095305  0.77087923     0.10490
H911        H  0.74773630  0.14470152  0.74094749     0.08510
Br912      Br  0.80952512  0.22539879  0.73351389    -0.02100
C913        C  0.83578096  0.16651478  0.89400852    -0.08730
C914        C  0.83626147  0.20087574  0.89363289     0.07460
C915        C  0.79983531  0.19721129  0.89388833    -0.02500
C916        C  0.76419480  0.15978039  0.89470342    -0.06950
C917        C  0.76382853  0.12548585  0.89513313     0.06580
C918        C  0.80025639  0.12918492  0.89486348    -0.01970
Br919      Br  0.80422368  0.08498944  0.89660458    -0.01670
H920        H  0.86336241  0.16864203  0.89400936     0.10490
H921        H  0.73652287  0.15747442  0.89469063     0.08510
Br922      Br  0.79617243  0.24156630  0.89229137    -0.02100
C923        C  0.64750590  0.96986477  0.83773697    -0.08730
C924        C  0.63670053  0.99202604  0.84572630     0.07460
C925        C  0.62536717  0.01336429  0.83730934    -0.02500
C926        C  0.62781602  0.01466661  0.82134225    -0.06950
C927        C  0.64114734  0.99479932  0.81321732     0.06580
C928        C  0.64975151  0.97096889  0.82157992    -0.01970
Br929      Br  0.66588874  0.94032969  0.81194605    -0.01670
H930        H  0.65584582  0.95298153  0.84408751     0.10490
H931        H  0.61951657  0.03194225  0.81527673     0.08510
Br932      Br  0.60538012  0.04092141  0.84683531    -0.02100
C933        C  0.54652961  0.03946051  0.89884047    -0.08730
C934        C  0.54181781  0.00337937  0.90134258     0.07460
C935        C  0.50312187  0.96902879  0.90311101    -0.02500
C936        C  0.47036990  0.97147777  0.90212436    -0.06950
C937        C  0.47518769  0.00762736  0.89927124     0.06580
C938        C  0.51410371  0.04194861  0.89761622    -0.01970
Br939      Br  0.52636500  0.09326699  0.89260398    -0.01670
H940        H  0.57588873  0.06611066  0.89717895     0.10490
H941        H  0.44090220  0.94480119  0.90350876     0.08510
Br942      Br  0.49286047  0.91823833  0.90726444    -0.02100
C943        C  0.65221521  0.77505133  0.42249377    -0.08730
C944        C  0.68757681  0.77868711  0.41887901     0.07460
C945        C  0.72086423  0.81608728  0.41441424    -0.02500
C946        C  0.71889390  0.84878938  0.41464692    -0.06950
C947        C  0.68441681  0.84575526  0.41921695     0.06580
C948        C  0.65025054  0.80794279  0.42268804    -0.01970
Br949      Br  0.60027631  0.79857152  0.42831046    -0.01670
H950        H  0.62611977  0.74658995  0.42572764     0.10490
H951        H  0.74525443  0.87721896  0.41157521     0.08510
Br952      Br  0.77055587  0.82582767  0.40797508    -0.02100
C953        C  0.58906552  0.62878527  0.59574530    -0.08730
C954        C  0.62813264  0.64061691  0.59856494     0.07460
C955        C  0.64314686  0.65110226  0.61375966    -0.02500
C956        C  0.62000365  0.65167988  0.62543266    -0.06950
C957        C  0.58152836  0.64124437  0.62246340     0.06580
C958        C  0.56580975  0.62900850  0.60748167    -0.01970
Br959      Br  0.51418370  0.61562132  0.60194943    -0.01670
H960        H  0.57710516  0.62116767  0.58417484     0.10490
H961        H  0.63206163  0.65996472  0.63698128     0.08510
Br962      Br  0.69451560  0.66404003  0.61958249    -0.02100
C963        C  0.65467802  0.63888076  0.50178258    -0.08730
C964        C  0.69173332  0.66264319  0.50912688     0.07460
C965        C  0.72591881  0.68574218  0.49994704    -0.02500
C966        C  0.72235541  0.68621007  0.48404047    -0.06950
C967        C  0.68537670  0.66387872  0.47662249     0.06580
C968        C  0.65121279  0.63926284  0.48566301    -0.01970
Br969      Br  0.59909784  0.60709939  0.47693236    -0.01670
H970        H  0.62813294  0.62085117  0.50862317     0.10490
H971        H  0.74924445  0.70441279  0.47739246     0.08510
Br972      Br  0.77907664  0.71675246  0.50802934    -0.02100
C973        C  0.05258304  0.67707956  0.60591075    -0.08730
C974        C  0.02549517  0.64395681  0.59704573     0.07460
C975        C  0.02134468  0.60811065  0.59988201    -0.02500
C976        C  0.04477689  0.60635458  0.61125270    -0.06950
C977        C  0.07283606  0.63999808  0.61986621     0.06580
C978        C  0.07617438  0.67566055  0.61709926    -0.01970
Br979      Br  0.11174137  0.72417216  0.62796595    -0.01670
H980        H  0.05632058  0.70497001  0.60384844     0.10490
H981        H  0.04104989  0.57849291  0.61331649     0.08510
Br982      Br  0.98294577  0.56049279  0.58919260    -0.02100
C983        C  0.83853553  0.63662613  0.55427854    -0.08730
C984        C  0.86510738  0.65458481  0.56665089     0.07460
C985        C  0.85606927  0.67095290  0.57875607    -0.02500
C986        C  0.82237497  0.67159839  0.57782674    -0.06950
C987        C  0.79698978  0.65565672  0.56504398     0.06580
C988        C  0.80480507  0.63726337  0.55332641    -0.01970
Br989      Br  0.77356459  0.61719099  0.53485188    -0.01670
H990        H  0.84539426  0.62438482  0.54479781     0.10490
H991        H  0.81634040  0.68524902  0.58701080     0.08510
Br992      Br  0.88841097  0.69225385  0.59688693    -0.02100
C993        C  0.56257207  0.88339108  0.61018579    -0.08730
C994        C  0.57547941  0.87036303  0.62217405     0.07460
C995        C  0.61421853  0.87965967  0.62183112    -0.02500
C996        C  0.63919614  0.90150117  0.60964266    -0.06950
C997        C  0.62645976  0.91431693  0.59748200     0.06580
C998        C  0.58774739  0.90546110  0.59791788    -0.01970
Br999      Br  0.56795439  0.92374862  0.58260003    -0.01670
H1000       H  0.53300385  0.87691201  0.61049040     0.10490
H1001       H  0.66842924  0.90716103  0.60944083     0.08510
Br1002     Br  0.63381839  0.86060283  0.63695486    -0.02100
C1003       C  0.74606110  0.85640008  0.55766045    -0.08730
C1004       C  0.71023177  0.85216686  0.56088542     0.07460
C1005       C  0.67624117  0.81430409  0.56421394    -0.02500
C1006       C  0.67838356  0.78177086  0.56375083    -0.06950
C1007       C  0.71385343  0.78574559  0.56015359     0.06580
C1008       C  0.74816291  0.82365528  0.55722995    -0.01970
Br1009     Br  0.79792885  0.83264521  0.55159162    -0.01670
H1010       H  0.77242442  0.88524752  0.55503125     0.10490
H1011       H  0.65189326  0.75296166  0.56634191     0.08510
Br1012     Br  0.62617434  0.80445702  0.57011988    -0.02100
C1013       C  0.70140903  0.93223900  0.50088346    -0.08730
C1014       C  0.68127820  0.94486810  0.50927718     0.07460
C1015       C  0.65725923  0.95375946  0.50117735    -0.02500
C1016       C  0.65635539  0.95261027  0.48499824    -0.06950
C1017       C  0.67892509  0.94262596  0.47674760     0.06580
C1018       C  0.70037352  0.93090643  0.48491315    -0.01970
Br1019     Br  0.72868490  0.91200265  0.47512269    -0.01670
H1020       H  0.71884273  0.92376118  0.50674348     0.10490
H1021       H  0.63928803  0.96111238  0.47885827     0.08510
Br1022     Br  0.62617235  0.96887980  0.51123535    -0.02100
C1023       C  0.06689423  0.32567454  0.60800869    -0.08730
C1024       C  0.04964060  0.33595653  0.59671137     0.07460
C1025       C  0.05479529  0.37284287  0.59782149    -0.02500
C1026       C  0.07716963  0.39846946  0.60997414    -0.06950
C1027       C  0.09415768  0.38779115  0.62119132     0.06580
C1028       C  0.08900410  0.35109328  0.62007909    -0.01970
Br1029     Br  0.11394649  0.33519119  0.63402206    -0.01670
H1030       H  0.06423210  0.29800380  0.60725987     0.10490
H1031       H  0.08059937  0.42649887  0.61085648     0.08510
Br1032     Br  0.03087880  0.38935258  0.58367667    -0.02100
C1033       C  0.88646114  0.11290028  0.56233040    -0.08730
C1034       C  0.88697353  0.14724166  0.56307867     0.07460
C1035       C  0.85050531  0.14340608  0.56393960    -0.02500
C1036       C  0.81479178  0.10577020  0.56374151    -0.06950
C1037       C  0.81450577  0.07151841  0.56275986     0.06580
C1038       C  0.85109616  0.07554071  0.56205431    -0.01970
Br1039     Br  0.85600965  0.03205761  0.55953415    -0.01670
H1040       H  0.91394486  0.11496929  0.56146675     0.10490
H1041       H  0.78708304  0.10331124  0.56437453     0.08510
Br1042     Br  0.84707472  0.18781415  0.56580121    -0.02100
C1043       C  0.84601513  0.07107061  0.42522504    -0.08730
C1044       C  0.81144305  0.07008118  0.42735035     0.07460
C1045       C  0.81517430  0.10612187  0.42946258    -0.02500
C1046       C  0.85265823  0.14159853  0.42949197    -0.06950
C1047       C  0.88712521  0.14256435  0.42735100     0.06580
C1048       C  0.88355920  0.10670524  0.42523917    -0.01970
Br1049     Br  0.92847375  0.10378602  0.42316811    -0.01670
H1050       H  0.84398529  0.04386816  0.42372867     0.10490
H1051       H  0.85476263  0.16884659  0.43100630     0.08510
Br1052     Br  0.77100802  0.11021039  0.43190767    -0.02100
C1053       C  0.03434180  0.26735804  0.48411582    -0.08730
C1054       C  0.01545940  0.28235109  0.47646488     0.07460
C1055       C  0.99883172  0.29842722  0.48516514    -0.02500
C1056       C  0.99882033  0.29650029  0.50129614    -0.06950
C1057       C  0.01524889  0.27878611  0.50888404     0.06580
C1058       C  0.03479246  0.26579618  0.50010795    -0.01970
Br1059     Br  0.06328873  0.24597785  0.50902491    -0.01670
H1060       H  0.04819458  0.25589785  0.47756510     0.10490
H1061       H  0.98421364  0.30708651  0.50786500     0.08510
Br1062     Br  0.97246656  0.31971523  0.47573699    -0.02100
C1063       C  0.14449215  0.30233936  0.41636553    -0.08730
C1064       C  0.10919065  0.26929743  0.42224720     0.07460
C1065       C  0.10978898  0.23823773  0.42873170    -0.02500
C1066       C  0.14471399  0.24002015  0.42879976    -0.06950
C1067       C  0.18003121  0.27262440  0.42278143     0.06580
C1068       C  0.17981832  0.30421824  0.41652740    -0.01970
Br1069     Br  0.22590560  0.34971176  0.40748522    -0.01670
H1070       H  0.14449447  0.32654520  0.41147585     0.10490
H1071       H  0.14434376  0.21590227  0.43401006     0.08510
Br1072     Br  0.06497562  0.19394007  0.43900959    -0.02100
C1073       C  0.34031223  0.37275520  0.59757658    -0.08730
C1074       C  0.31654839  0.33147796  0.59890687     0.07460
C1075       C  0.29575976  0.31451335  0.61283453    -0.02500
C1076       C  0.29724077  0.33858956  0.62454764    -0.06950
C1077       C  0.31979056  0.37973010  0.62299061     0.06580
C1078       C  0.34219061  0.39687484  0.60941853    -0.01970
Br1079     Br  0.37364567  0.45270429  0.60573791    -0.01670
H1080       H  0.35627446  0.38641165  0.58699703     0.10490
H1081       H  0.28089100  0.32495631  0.63506670     0.08510
Br1082     Br  0.26550356  0.25885340  0.61700508    -0.02100
C1083       C  0.14527556  0.22504642  0.56476909    -0.08730
C1084       C  0.17598992  0.25150709  0.55478425     0.07460
C1085       C  0.17153971  0.27710571  0.54564860    -0.02500
C1086       C  0.13728808  0.27643426  0.54693103    -0.06950
C1087       C  0.10689164  0.25057135  0.55712820     0.06580
C1088       C  0.11099646  0.22449201  0.56609056    -0.01970
Br1089     Br  0.07267415  0.18954337  0.58114488    -0.01670
H1090       H  0.14849688  0.20559501  0.57200922     0.10490
H1091       H  0.13431528  0.29617485  0.53977200     0.08510
Br1092     Br  0.21007528  0.31275598  0.53076574    -0.02100
C1093       C  0.31352758  0.25578031  0.50001886    -0.08730
C1094       C  0.31629861  0.28586768  0.50874131     0.07460
C1095       C  0.31992444  0.31798627  0.50102178    -0.02500
C1096       C  0.31844006  0.31822488  0.48483993    -0.06950
C1097       C  0.31281911  0.28653854  0.47625496     0.06580
C1098       C  0.31184514  0.25587245  0.48399357    -0.01970
Br1099     Br  0.30744097  0.21267609  0.47329468    -0.01670
H1100       H  0.31110629  0.23111189  0.50574862     0.10490
H1101       H  0.31895741  0.34180846  0.47904210     0.08510
Br1102     Br  0.32179900  0.35948661  0.51192543    -0.02100
C1103       C  0.35265398  0.93753318  0.59853577    -0.08730
C1104       C  0.31876208  0.93820455  0.59839479     0.07460
C1105       C  0.28929709  0.91625900  0.60966380    -0.02500
C1106       C  0.29391188  0.89415534  0.62050031    -0.06950
C1107       C  0.32742512  0.89286512  0.62063598     0.06580
C1108       C  0.35748692  0.91557792  0.60958438    -0.01970
Br1109     Br  0.40557606  0.91793675  0.60861142    -0.01670
H1110       H  0.37546511  0.95402998  0.58994320     0.10490
H1111       H  0.27047335  0.87732508  0.62882913     0.08510
Br1112     Br  0.24001786  0.91188603  0.61039375    -0.02100
C1113       C  0.13311488  0.86689083  0.56171131    -0.08730
C1114       C  0.16788720  0.86811424  0.55993048     0.07460
C1115       C  0.16434727  0.83225075  0.55752644    -0.02500
C1116       C  0.12691238  0.79675818  0.55692184    -0.06950
C1117       C  0.09212453  0.79542504  0.55874587     0.06580
C1118       C  0.09555990  0.83121421  0.56112175    -0.01970
Br1119     Br  0.05073462  0.83425941  0.56323012    -0.01670
H1120       H  0.13502700  0.89396525  0.56344636     0.10490
H1121       H  0.12517447  0.76975620  0.55522905     0.08510
Br1122     Br  0.20871038  0.82830619  0.55546490    -0.02100
C1123       C  0.25947470  0.08944398  0.56976000    -0.08730
C1124       C  0.29498561  0.09258590  0.56716907     0.07460
C1125       C  0.33008279  0.13058513  0.56486625    -0.02500
C1126       C  0.32836328  0.16364153  0.56432694    -0.06950
C1127       C  0.29230513  0.15998556  0.56603507     0.06580
C1128       C  0.25772376  0.12228038  0.56923581    -0.01970
Br1129     Br  0.20661824  0.11242307  0.57305451    -0.01670
H1130       H  0.23222674  0.06085946  0.57184610     0.10490
H1131       H  0.35537590  0.19231778  0.56209291     0.08510
Br1132     Br  0.38129920  0.14005562  0.56213342    -0.02100
C1133       C  0.84221074  0.65816347  0.43537364    -0.08730
C1134       C  0.87632210  0.68911923  0.42800331     0.07460
C1135       C  0.87492389  0.71907451  0.42076792    -0.02500
C1136       C  0.83983337  0.71730981  0.42104041    -0.06950
C1137       C  0.80566049  0.68606235  0.42828610     0.06580
C1138       C  0.80723561  0.65634042  0.43563514    -0.01970
Br1139     Br  0.76376145  0.61288642  0.44679514    -0.01670
H1140       H  0.84266462  0.63508178  0.44113204     0.10490
H1141       H  0.83911739  0.74022775  0.41527089     0.08510
Br1142     Br  0.91869014  0.76234266  0.40973001    -0.02100
C1143       C  0.94520406  0.66450333  0.48589745    -0.08730
C1144       C  0.97153135  0.65932792  0.47778396     0.07460
C1145       C  0.99455440  0.64954972  0.48604656    -0.02500
C1146       C  0.99275492  0.64782146  0.50219425    -0.06950
C1147       C  0.96841999  0.65585290  0.51025424     0.06580
C1148       C  0.94332058  0.66266725  0.50191353    -0.01970
Br1149     Br  0.90549502  0.66939181  0.51172004    -0.01670
H1150       H  0.92637732  0.67081475  0.47974673     0.10490
H1151       H  0.01211545  0.64247267  0.50847852     0.08510
Br1152     Br  0.03166285  0.64208976  0.47617812    -0.02100
C1153       C  0.23891493  0.08480104  0.42847417    -0.08730
C1154       C  0.27541204  0.08907354  0.42789544     0.07460
C1155       C  0.31064489  0.12723343  0.42684954    -0.02500
C1156       C  0.30883976  0.15995291  0.42690478    -0.06950
C1157       C  0.27252222  0.15594465  0.42786237     0.06580
C1158       C  0.23710539  0.11772265  0.42849603    -0.01970
Br1159     Br  0.18550414  0.10792622  0.43005714    -0.01670
H1160       H  0.21157171  0.05564883  0.42925148     0.10490
H1161       H  0.33636727  0.18893683  0.42603801     0.08510
Br1162     Br  0.36229378  0.13739029  0.42451011    -0.02100
C1163       C  0.32975707  0.00803599  0.48642668    -0.08730
C1164       C  0.29466644  0.97871713  0.47895613     0.07460
C1165       C  0.26221820  0.94993910  0.48777309    -0.02500
C1166       C  0.26453904  0.95168942  0.50376415    -0.06950
C1167       C  0.29872069  0.98201361  0.51137699     0.06580
C1168       C  0.33193308  0.01011965  0.50257679    -0.01970
Br1169     Br  0.37903078  0.05409210  0.51182341    -0.01670
H1170       H  0.35470181  0.03065164  0.47970471     0.10490
H1171       H  0.23893060  0.92947513  0.51032191     0.08510
Br1172     Br  0.21385879  0.90742026  0.47855942    -0.02100
C1173       C  0.09762463  0.82738097  0.41951469    -0.08730
C1174       C  0.09680577  0.79315050  0.42178102     0.07460
C1175       C  0.13326723  0.79715511  0.42347871    -0.02500
C1176       C  0.16892633  0.83482136  0.42369034    -0.06950
C1177       C  0.16946275  0.86914167  0.42215812     0.06580
C1178       C  0.13302925  0.86486867  0.41969680    -0.01970
Br1179     Br  0.12787975  0.90818541  0.41710724    -0.01670
H1180       H  0.07022873  0.82524974  0.41801692     0.10490
H1181       H  0.19640008  0.83721309  0.42537077     0.08510
Br1182     Br  0.13711076  0.75303905  0.42571634    -0.02100
C1183       C  0.66692894  0.01702846  0.36316193    -0.08730
C1184       C  0.64700512  0.03496860  0.36616591     0.07460
C1185       C  0.62790838  0.02798923  0.38049794    -0.02500
C1186       C  0.63185795  0.00615749  0.39183528    -0.06950
C1187       C  0.65432555  0.99062599  0.38917846     0.06580
C1188       C  0.67072447  0.99508412  0.37434869    -0.01970
Br1189     Br  0.70026232  0.97390126  0.36827865    -0.01670
H1190       H  0.68107398  0.02122785  0.35212567     0.10490
H1191       H  0.61828466  0.00244463  0.40296248     0.08510
Br1192     Br  0.59541284  0.04650389  0.38526644    -0.02100
C1193       C  0.89637607  0.29215514  0.38233328    -0.08730
C1194       C  0.91507461  0.30756144  0.36809516     0.07460
C1195       C  0.95567546  0.32230237  0.36669543    -0.02500
C1196       C  0.97546548  0.31838722  0.37893515    -0.06950
C1197       C  0.95613847  0.30143569  0.39288580     0.06580
C1198       C  0.91644563  0.28905607  0.39466073    -0.01970
Br1199     Br  0.88656365  0.26361717  0.41301995    -0.01670
H1200       H  0.86542043  0.28091852  0.38373606     0.10490
H1201       H  0.00611608  0.32844459  0.37752287     0.08510
Br1202     Br  0.98672481  0.34972213  0.34883562    -0.02100
C1203       C  0.95186104  0.58684726  0.38319812    -0.08730
C1204       C  0.93074112  0.59676236  0.39239594     0.07460
C1205       C  0.89021702  0.57921557  0.38949966    -0.02500
C1206       C  0.87156761  0.55277586  0.37731433    -0.06950
C1207       C  0.89291467  0.54409842  0.36758456     0.06580
C1208       C  0.93338088  0.56094801  0.37073495    -0.01970
Br1209     Br  0.96466430  0.54916741  0.35871362    -0.01670
H1210       H  0.98302650  0.60018328  0.38542190     0.10490
H1211       H  0.84050249  0.54005766  0.37510385     0.08510
Br1212     Br  0.85905078  0.59064884  0.40182836    -0.02100
C1213       C  0.67388468  0.59371513  0.36079393    -0.08730
C1214       C  0.66471691  0.55601644  0.36409010     0.07460
C1215       C  0.65340102  0.54128248  0.37923356    -0.02500
C1216       C  0.65235736  0.56455087  0.39071119    -0.06950
C1217       C  0.66282498  0.60277190  0.38751940     0.06580
C1218       C  0.67286409  0.61696778  0.37225715    -0.01970
Br1219     Br  0.68461961  0.66741744  0.36615415    -0.01670
H1220       H  0.68165719  0.60515005  0.34916670     0.10490
H1221       H  0.64539691  0.55343820  0.40239481     0.08510
Br1222     Br  0.64255379  0.49127904  0.38540662    -0.02100
C1223       C  0.42639240  0.08101527  0.38220111    -0.08730
C1224       C  0.41451549  0.06416737  0.36745097     0.07460
C1225       C  0.37808103  0.02675427  0.36590712    -0.02500
C1226       C  0.35388435  0.00852151  0.37876532    -0.06950
C1227       C  0.36515273  0.02616788  0.39334067     0.06580
C1228       C  0.40226026  0.06250968  0.39506115    -0.01970
Br1229     Br  0.42031504  0.09054531  0.41425120    -0.01670
H1230       H  0.45420620  0.10948133  0.38373546     0.10490
H1231       H  0.32551176  0.98053508  0.37729352     0.08510
Br1232     Br  0.35827609  0.99848287  0.34678550    -0.02100
C1233       C  0.36851609  0.25787496  0.36754379    -0.08730
C1234       C  0.40253772  0.29445552  0.36325275     0.07460
C1235       C  0.41108700  0.32877994  0.37103115    -0.02500
C1236       C  0.38645598  0.32555766  0.38299257    -0.06950
C1237       C  0.35263207  0.28890669  0.38722509     0.06580
C1238       C  0.34372763  0.25477338  0.37930839    -0.01970
Br1239     Br  0.29995959  0.20233111  0.38464145    -0.01670
H1240       H  0.36118286  0.23114701  0.36182367     0.10490
H1241       H  0.39365219  0.35194370  0.38896696     0.08510
Br1242     Br  0.45514538  0.38121587  0.36601417    -0.02100
C1243       C  0.89356826  0.29310585  0.27452638    -0.08730
C1244       C  0.90904614  0.29893751  0.28948729     0.07460
C1245       C  0.94533646  0.30289293  0.29154665    -0.02500
C1246       C  0.96674745  0.30424105  0.27877256    -0.06950
C1247       C  0.95241609  0.30069680  0.26376505     0.06580
C1248       C  0.91481396  0.29394893  0.26171571    -0.01970
Br1249     Br  0.89245064  0.28953382  0.24175864    -0.01670
H1250       H  0.86551448  0.28946304  0.27270907     0.10490
H1251       H  0.99522362  0.30875967  0.28057943     0.08510
Br1252     Br  0.96667920  0.30474420  0.31142122    -0.02100
C1253       C  0.03632420  0.30993854  0.16769402    -0.08730
C1254       C  0.01072440  0.31522440  0.17619827     0.07460
C1255       C  0.98329806  0.31970296  0.16839123    -0.02500
C1256       C  0.98265707  0.31987044  0.15222563    -0.06950
C1257       C  0.00967522  0.31642967  0.14375266     0.06580
C1258       C  0.03593370  0.31040494  0.15163913    -0.01970
Br1259     Br  0.07247436  0.30328134  0.14104672    -0.01670
H1260       H  0.05762905  0.30667299  0.17358789     0.10490
H1261       H  0.96295899  0.32538418  0.14631662     0.08510
Br1262     Br  0.95012140  0.33101666  0.17924921    -0.02100
C1263       C  0.40065513  0.28754465  0.27303327    -0.08730
C1264       C  0.39742614  0.29674218  0.28829034     0.07460
C1265       C  0.36967237  0.30592917  0.29156078    -0.02500
C1266       C  0.34822698  0.30826083  0.27959934    -0.06950
C1267       C  0.35324830  0.30145896  0.26423114     0.06580
C1268       C  0.37901691  0.28977309  0.26106119    -0.01970
Br1269     Br  0.38879628  0.27931070  0.24065582    -0.01670
H1270       H  0.42118764  0.27982275  0.27025693     0.10490
H1271       H  0.32823608  0.31670841  0.28233789     0.08510
Br1272     Br  0.35918596  0.31627551  0.31190174    -0.02100
C1273       C  0.16927661  0.30277594  0.23699875    -0.08730
C1274       C  0.20572469  0.33758988  0.23303510     0.07460
C1275       C  0.20627258  0.37075806  0.22840342    -0.02500
C1276       C  0.17126972  0.36893207  0.22812548    -0.06950
C1277       C  0.13471473  0.33433585  0.23206864     0.06580
C1278       C  0.13391865  0.30088110  0.23660091    -0.01970
Br1279     Br  0.08617154  0.25231031  0.24281920    -0.01670
H1280       H  0.16830013  0.27697563  0.24048422     0.10490
H1281       H  0.17264579  0.39470648  0.22427293     0.08510
Br1282     Br  0.25295946  0.41854749  0.22080507    -0.02100
C1283       C  0.20983686  0.38212145  0.08606319    -0.08730
C1284       C  0.21310353  0.35849148  0.09675184     0.07460
C1285       C  0.18147281  0.33456923  0.10694974    -0.02500
C1286       C  0.14726292  0.33399599  0.10604137    -0.06950
C1287       C  0.14361639  0.35706663  0.09524834     0.06580
C1288       C  0.17532041  0.38138642  0.08514722    -0.01970
Br1289     Br  0.17202931  0.41130716  0.06902137    -0.01670
H1290       H  0.23367590  0.40020041  0.07801484     0.10490
H1291       H  0.12324318  0.31528353  0.11391430     0.08510
Br1292     Br  0.18307295  0.30293306  0.12281968    -0.02100
C1293       C  0.31948545  0.31261529  0.15361403    -0.08730
C1294       C  0.30771863  0.33468234  0.14609031     0.07460
C1295       C  0.29279673  0.35221547  0.15502264    -0.02500
C1296       C  0.29248012  0.34970906  0.17098947    -0.06950
C1297       C  0.30639546  0.32979205  0.17858487     0.06580
C1298       C  0.31896448  0.31005865  0.16976060    -0.01970
Br1299     Br  0.33866182  0.28207617  0.17901912    -0.01670
H1300       H  0.33058364  0.29860470  0.14697239     0.10490
H1301       H  0.28172666  0.36414997  0.17757834     0.08510
Br1302     Br  0.27165257  0.37983816  0.14652541    -0.02100
C1303       C  0.46570311  0.46499797  0.10074393    -0.08730
C1304       C  0.43639103  0.45768321  0.09012071     0.07460
C1305       C  0.44528074  0.48698664  0.07919130    -0.02500
C1306       C  0.48177838  0.52360583  0.07973417    -0.06950
C1307       C  0.51029896  0.53180569  0.09089994     0.06580
C1308       C  0.50233851  0.50167532  0.10128006    -0.01970
Br1309     Br  0.53809949  0.50980129  0.11753083    -0.01670
H1310       H  0.45929623  0.44287926  0.10925876     0.10490
H1311       H  0.48763755  0.54610312  0.07150925     0.08510
Br1312     Br  0.40918619  0.47864065  0.06304763    -0.02100
C1313       C  0.62293582  0.01374320  0.26522466    -0.08730
C1314       C  0.64854714  0.00143412  0.26504620     0.07460
C1315       C  0.67397365  0.01037367  0.27756896    -0.02500
C1316       C  0.67442122  0.03262359  0.28986090    -0.06950
C1317       C  0.64874383  0.04513104  0.29012661     0.06580
C1318       C  0.62248799  0.03508399  0.27763402    -0.01970
Br1319     Br  0.58577215  0.04991707  0.27646952    -0.01670
H1320       H  0.60253654  0.00600225  0.25573877     0.10490
H1321       H  0.69435999  0.03941933  0.29941694     0.08510
Br1322     Br  0.70744678  0.99172186  0.27850281    -0.02100
C1323       C  0.62886417  0.59197178  0.27883823    -0.08730
C1324       C  0.65681752  0.60845118  0.26687631     0.07460
C1325       C  0.68777795  0.60289186  0.26700797    -0.02500
C1326       C  0.68893855  0.57959489  0.27851941    -0.06950
C1327       C  0.65955125  0.56131968  0.28997384     0.06580
C1328       C  0.62984877  0.56869238  0.29024557    -0.01970
Br1329     Br  0.58997884  0.54904962  0.30596207    -0.01670
H1330       H  0.60501786  0.59609474  0.27911210     0.10490
H1331       H  0.71256120  0.57515223  0.27832114     0.08510
Br1332     Br  0.72974180  0.62692713  0.25213770    -0.02100
C1333       C  0.50149421  0.50255839  0.23190551    -0.08730
C1334       C  0.50289300  0.53685436  0.22892293     0.07460
C1335       C  0.46711825  0.53337306  0.22597555    -0.02500
C1336       C  0.43108288  0.49618858  0.22626111    -0.06950
C1337       C  0.42982237  0.46195702  0.22917781     0.06580
C1338       C  0.46557047  0.46543970  0.23209550    -0.01970
Br1339     Br  0.46746191  0.42117594  0.23733536    -0.01670
H1340       H  0.52854229  0.50461501  0.23434170     0.10490
H1341       H  0.40394201  0.49393144  0.22380348     0.08510
Br1342     Br  0.46533278  0.57749427  0.22043585    -0.02100
C1343       C  0.66448995  0.67566639  0.15443530    -0.08730
C1344       C  0.62805438  0.64980640  0.14695718     0.07460
C1345       C  0.59428864  0.62364550  0.15586120    -0.02500
C1346       C  0.59699430  0.62469915  0.17182336    -0.06950
C1347       C  0.63278131  0.65154634  0.17943504     0.06580
C1348       C  0.66706522  0.67696119  0.17059791    -0.01970
Br1349     Br  0.71695788  0.71614048  0.17983028    -0.01670
H1350       H  0.69061190  0.69613342  0.14772477     0.10490
H1351       H  0.57046656  0.60441254  0.17837521     0.08510
Br1352     Br  0.54338630  0.58495057  0.14706670    -0.02100
C1353       C  0.59719982  0.75663597  0.24056599    -0.08730
C1354       C  0.63227996  0.75985376  0.23691866     0.07460
C1355       C  0.66678376  0.79773133  0.23384312    -0.02500
C1356       C  0.66463083  0.83050854  0.23340337    -0.06950
C1357       C  0.62872581  0.82662789  0.23600838     0.06580
C1358       C  0.59498890  0.78915388  0.24015175    -0.01970
Br1359     Br  0.54418894  0.77883714  0.24515649    -0.01670
H1360       H  0.57048862  0.72814244  0.24329656     0.10490
H1361       H  0.69106309  0.85905443  0.23049881     0.08510
Br1362     Br  0.71761935  0.80731832  0.22983995    -0.02100
C1363       C  0.57268159  0.78836989  0.09523569    -0.08730
C1364       C  0.60938460  0.82510123  0.09612910     0.07460
C1365       C  0.64431178  0.82610173  0.09748737    -0.02500
C1366       C  0.64178017  0.79098143  0.09831958    -0.06950
C1367       C  0.60518573  0.75422402  0.09753627     0.06580
C1368       C  0.57024861  0.75308281  0.09589058    -0.01970
Br1369     Br  0.51825524  0.70487607  0.09500631    -0.01670
H1370       H  0.54559292  0.78700507  0.09418388     0.10490
H1371       H  0.66901911  0.79259765  0.09927591     0.08510
Br1372     Br  0.69693978  0.87380254  0.09741596    -0.02100
C1373       C  0.66247434  0.97107889  0.16904262    -0.08730
C1374       C  0.62912300  0.93932471  0.17663387     0.07460
C1375       C  0.59571268  0.91172711  0.16763696    -0.02500
C1376       C  0.59655830  0.91601486  0.15175670    -0.06950
C1377       C  0.62989636  0.94703489  0.14403011     0.06580
C1378       C  0.66317976  0.97514870  0.15290372    -0.01970
Br1379     Br  0.71037754  0.01932540  0.14388029    -0.01670
H1380       H  0.68825630  0.99280148  0.17566553     0.10490
H1381       H  0.57036021  0.89409357  0.14536960     0.08510
Br1382     Br  0.54681234  0.86675863  0.17561834    -0.02100
C1383       C  0.51329334  0.96761621  0.08058531    -0.08730
C1384       C  0.51642718  0.94263841  0.09056070     0.07460
C1385       C  0.48501335  0.91786806  0.10067830    -0.02500
C1386       C  0.45032060  0.91645281  0.10002703    -0.06950
C1387       C  0.44635959  0.94020389  0.08973704     0.06580
C1388       C  0.47845981  0.96663244  0.08013622    -0.01970
Br1389     Br  0.47516028  0.99967041  0.06557234    -0.01670
H1390       H  0.53743557  0.98701678  0.07284761     0.10490
H1391       H  0.42637533  0.89701401  0.10784346     0.08510
Br1392     Br  0.48869338  0.88716102  0.11639106    -0.02100
C1393       C  0.41821095  0.04145050  0.26012573    -0.08730
C1394       C  0.38165038  0.00565831  0.26290355     0.07460
C1395       C  0.36667336  0.99658796  0.27801994    -0.02500
C1396       C  0.38867334  0.02262535  0.29000383    -0.06950
C1397       C  0.42602708  0.05787100  0.28740404     0.06580
C1398       C  0.44062585  0.06735316  0.27215370    -0.01970
Br1399     Br  0.49129881  0.11385405  0.26673118    -0.01670
H1400       H  0.43038952  0.04854030  0.24859671     0.10490
H1401       H  0.37647057  0.01478078  0.30151552     0.08510
Br1402     Br  0.31615494  0.94948791  0.28312187    -0.02100
C1403       C  0.43721024  0.88081241  0.22308569    -0.08730
C1404       C  0.43929108  0.91340804  0.22928608     0.07460
C1405       C  0.47527342  0.94485749  0.23562302    -0.02500
C1406       C  0.50874193  0.94410637  0.23496552    -0.06950
C1407       C  0.50714342  0.91228324  0.22826413     0.06580
C1408       C  0.47084836  0.88004488  0.22247423    -0.01970
Br1409     Br  0.46607404  0.83602383  0.21243449    -0.01670
H1410       H  0.40969760  0.85653925  0.21813800     0.10490
H1411       H  0.53630822  0.96865535  0.23977561     0.08510
Br1412     Br  0.48050921  0.98891422  0.24591667    -0.02100
C1413       C  0.35533661  0.97062202  0.16929306    -0.08730
C1414       C  0.33389832  0.93392909  0.17678743     0.07460
C1415       C  0.31237852  0.89919564  0.16796942    -0.02500
C1416       C  0.31360681  0.90142325  0.15200823    -0.06950
C1417       C  0.33619773  0.93779897  0.14434277     0.06580
C1418       C  0.35692036  0.97284943  0.15313757    -0.01970
Br1419     Br  0.39017412  0.02402422  0.14394489    -0.01670
H1420       H  0.37227290  0.99749709  0.17600581     0.10490
H1421       H  0.29675387  0.87414127  0.14553037     0.08510
Br1422     Br  0.27977489  0.84757513  0.17700770    -0.02100
C1423       C  0.93202935  0.58577787  0.26754186    -0.08730
C1424       C  0.95460848  0.57231621  0.26213786     0.07460
C1425       C  0.94886209  0.53796113  0.26862974    -0.02500
C1426       C  0.92187210  0.51855229  0.28056263    -0.06950
C1427       C  0.90060590  0.53289272  0.28645372     0.06580
C1428       C  0.90540930  0.56656910  0.27975924    -0.01970
Br1429     Br  0.87527339  0.58643280  0.28641265    -0.01670
H1430       H  0.93568607  0.61169332  0.26247645     0.10490
H1431       H  0.91819657  0.49251389  0.28553386     0.08510
Br1432     Br  0.97565015  0.51481004  0.26140748    -0.02100
C1433       C  0.00764725  0.48377901  0.22542688    -0.08730
C1434       C  0.04398776  0.52056656  0.22408637     0.07460
C1435       C  0.07924715  0.52209433  0.22310293    -0.02500
C1436       C  0.07734104  0.48706976  0.22341375    -0.06950
C1437       C  0.04083747  0.45033435  0.22458110     0.06580
C1438       C  0.00574047  0.44895892  0.22579684    -0.01970
Br1439     Br  0.95427164  0.40105656  0.22899321    -0.01670
H1440       H  0.98034027  0.48198889  0.22648793     0.10490
H1441       H  0.10448677  0.48853216  0.22243254     0.08510
Br1442     Br  0.13063362  0.57038063  0.22053973    -0.02100
C1443       C  0.21856821  0.77981485  0.23575927    -0.08730
C1444       C  0.21995140  0.81425078  0.23323539     0.07460
C1445       C  0.18384976  0.81079665  0.23123368    -0.02500
C1446       C  0.14791137  0.77336647  0.23103484    -0.06950
C1447       C  0.14685549  0.73882098  0.23282159     0.06580
C1448       C  0.18296186  0.74258424  0.23552361    -0.01970
Br1449     Br  0.18753703  0.69891270  0.23827385    -0.01670
H1450       H  0.24571008  0.78154254  0.23741918     0.10490
H1451       H  0.12067550  0.77132093  0.22914944     0.08510
Br1452     Br  0.18097376  0.85542390  0.22868712    -0.02100
C1453       C  0.14800547  0.76848433  0.09607846    -0.08730
C1454       C  0.14738138  0.73407176  0.09534112     0.07460
C1455       C  0.18375660  0.73775691  0.09417198    -0.02500
C1456       C  0.21939474  0.77523154  0.09358405    -0.06950
C1457       C  0.21992211  0.80959169  0.09430309     0.06580
C1458       C  0.18355938  0.80587293  0.09553751    -0.01970
Br1459     Br  0.17953012  0.85016733  0.09570446    -0.01670
H1460       H  0.12049992  0.76641472  0.09678820     0.10490
H1461       H  0.24698103  0.77747007  0.09284089     0.08510
Br1462     Br  0.18756853  0.69336096  0.09403786    -0.02100
C1463       C  0.02954711  0.59563194  0.15097264    -0.08730
C1464       C  0.00986621  0.60968204  0.14321098     0.07460
C1465       C  0.98969080  0.62203885  0.15191682    -0.02500
C1466       C  0.99256450  0.62326334  0.16806856    -0.06950
C1467       C  0.01512785  0.61214626  0.17566181     0.06580
C1468       C  0.03213655  0.59645689  0.16693051    -0.01970
Br1469     Br  0.05885383  0.57474096  0.17587513    -0.01670
H1470       H  0.04391389  0.58454859  0.14453981     0.10490
H1471       H  0.97855136  0.63448113  0.17464213     0.08510
Br1472     Br  0.96022886  0.63999965  0.14254511    -0.02100
C1473       C  0.98969154  0.47696597  0.08477142    -0.08730
C1474       C  0.02435640  0.51355066  0.08868222     0.07460
C1475       C  0.05820599  0.51496595  0.09329537    -0.02500
C1476       C  0.05711283  0.48058936  0.09360773    -0.06950
C1477       C  0.02267566  0.44392449  0.08970593     0.06580
C1478       C  0.98855611  0.44225287  0.08519861    -0.01970
Br1479     Br  0.93999859  0.39422033  0.07907924    -0.01670
H1480       H  0.96341216  0.47537259  0.08131362     0.10490
H1481       H  0.08338423  0.48257567  0.09739780     0.08510
Br1482     Br  0.10614746  0.56194207  0.10073662    -0.02100
C1483       C  0.73891525  0.75853165  0.04424845    -0.08730
C1484       C  0.75073948  0.73795293  0.03573667     0.07460
C1485       C  0.73711771  0.69919685  0.04027687    -0.02500
C1486       C  0.71154018  0.68171422  0.05290540    -0.06950
C1487       C  0.69854240  0.70189857  0.06089367     0.06580
C1488       C  0.71280297  0.74078940  0.05658982    -0.01970
Br1489     Br  0.69811197  0.77140058  0.06736098    -0.01670
H1490       H  0.74913655  0.78831255  0.04102830     0.10490
H1491       H  0.70081766  0.65185089  0.05619814     0.08510
Br1492     Br  0.75276817  0.66884916  0.03000494    -0.02100
C1493       C  0.76061785  0.73836170  0.94087686    -0.08730
C1494       C  0.75726034  0.72131369  0.95531697     0.07460
C1495       C  0.73396245  0.67980606  0.95656769    -0.02500
C1496       C  0.71511363  0.65656331  0.94355629    -0.06950
C1497       C  0.71901774  0.67345385  0.92903055     0.06580
C1498       C  0.74186273  0.71501395  0.92780036    -0.01970
Br1499     Br  0.75139592  0.74213532  0.90859949    -0.01670
H1500       H  0.77846225  0.77017787  0.93968371     0.10490
H1501       H  0.69817407  0.62478536  0.94476520     0.08510
Br1502     Br  0.72924907  0.65243418  0.97526033    -0.02100
C1503       C  0.74473649  0.99533776  0.03665535    -0.08730
C1504       C  0.73716838  0.95995824  0.03050457     0.07460
C1505       C  0.70476309  0.92377011  0.03640612    -0.02500
C1506       C  0.68148289  0.92378951  0.04810524    -0.06950
C1507       C  0.68947670  0.95901810  0.05438512     0.06580
C1508       C  0.72137379  0.99512469  0.04850396    -0.01970
Br1509     Br  0.73286539  0.04469792  0.05556328    -0.01670
H1510       H  0.76896630  0.02349326  0.03221594     0.10490
H1511       H  0.65715340  0.89567598  0.05257830     0.08510
Br1512     Br  0.68952083  0.87276435  0.02926110    -0.02100
C1513       C  0.72888740  0.97499677  0.92662552    -0.08730
C1514       C  0.69100385  0.96572318  0.92992855     0.07460
C1515       C  0.67585681  0.95361212  0.94492180    -0.02500
C1516       C  0.69912439  0.95215170  0.95636768    -0.06950
C1517       C  0.73785980  0.96312789  0.95325747     0.06580
C1518       C  0.75254320  0.97441534  0.93809345    -0.01970
Br1519     Br  0.80581172  0.99345913  0.93238573    -0.01670
H1520       H  0.74129624  0.98530682  0.91523598     0.10490
H1521       H  0.68698408  0.94293701  0.96784748     0.08510
Br1522     Br  0.62354194  0.93829667  0.95033611    -0.02100
C1523       C  0.23902196  0.25810857  0.03227592    -0.08730
C1524       C  0.22998398  0.21984168  0.03304846     0.07460
C1525       C  0.24187705  0.20878711  0.04619262    -0.02500
C1526       C  0.26206367  0.23588917  0.05820768    -0.06950
C1527       C  0.27087607  0.27420638  0.05745879     0.06580
C1528       C  0.25877624  0.28503832  0.04424359    -0.01970
Br1529     Br  0.26546687  0.33493829  0.04175434    -0.01670
H1530       H  0.22985144  0.26703583  0.02235828     0.10490
H1531       H  0.27091054  0.22687949  0.06819415     0.08510
Br1532     Br  0.23326539  0.15804130  0.04821248    -0.02100
C1533       C  0.28819479  0.23551170  0.95742111    -0.08730
C1534       C  0.24725206  0.21202146  0.95459199     0.07460
C1535       C  0.23350734  0.21217176  0.93967751    -0.02500
C1536       C  0.26071821  0.23408893  0.92789696    -0.06950
C1537       C  0.30181223  0.25616796  0.93057871     0.06580
C1538       C  0.31537055  0.25734390  0.94570962    -0.01970
Br1539     Br  0.37036018  0.28790275  0.95154934    -0.01670
H1540       H  0.29938888  0.23637052  0.96882775     0.10490
H1541       H  0.24955794  0.23294534  0.91645838     0.08510
Br1542     Br  0.17822692  0.18422219  0.93462848    -0.02100
C1543       C  0.97117925  0.20942253  0.04047066    -0.08730
C1544       C  0.00135612  0.22739825  0.02930967     0.07460
C1545       C  0.03044701  0.26840219  0.03038106    -0.02500
C1546       C  0.02965707  0.28976162  0.04267156    -0.06950
C1547       C  0.00057990  0.27152115  0.05421950     0.06580
C1548       C  0.97054313  0.23090973  0.05283057    -0.01970
Br1549     Br  0.92749986  0.20292963  0.06712778    -0.01670
H1550       H  0.94807506  0.17816638  0.03974290     0.10490
H1551       H  0.05300938  0.32095938  0.04340062     0.08510
Br1552     Br  0.07219839  0.29793728  0.01561315    -0.02100
C1553       C  0.95902100  0.21041462  0.94788036    -0.08730
C1554       C  0.99639672  0.22535841  0.95438120     0.07460
C1555       C  0.02938721  0.26199654  0.94891656    -0.02500
C1556       C  0.02422237  0.28215003  0.93712257    -0.06950
C1557       C  0.98655531  0.26707577  0.93097113     0.06580
C1558       C  0.95387093  0.23081382  0.93644253    -0.01970
Br1559     Br  0.90132606  0.20646668  0.92826284    -0.01670
H1560       H  0.93322105  0.18244697  0.95170988     0.10490
H1561       H  0.04949391  0.31017154  0.93303708     0.08510
Br1562     Br  0.08180245  0.28726003  0.95728941    -0.02100
C1563       C  0.24634316  0.97967449  0.04911633    -0.08730
C1564       C  0.25285713  0.97356611  0.03382815     0.07460
C1565       C  0.28279697  0.96719638  0.03090290    -0.02500
C1566       C  0.30318743  0.96438831  0.04316206    -0.06950
C1567       C  0.29502968  0.96816718  0.05847968     0.06580
C1568       C  0.26698099  0.97703944  0.06138949    -0.01970
Br1569     Br  0.25258661  0.98243789  0.08177747    -0.01670
H1570       H  0.22396773  0.98509484  0.05163982     0.10490
H1571       H  0.32501613  0.95816342  0.04068099     0.08510
Br1572     Br  0.29803893  0.96198559  0.01061773    -0.02100
C1573       C  0.23844344  0.94808698  0.94770788    -0.08730
C1574       C  0.25409047  0.97942728  0.95828276     0.07460
C1575       C  0.29427441  0.01116104  0.95689334    -0.02500
C1576       C  0.31693855  0.01188420  0.94474840    -0.06950
C1577       C  0.30086489  0.98158593  0.93368086     0.06580
C1578       C  0.26125744  0.94884910  0.93550696    -0.01970
Br1579     Br  0.23642003  0.90399230  0.92204244    -0.01670
H1580       H  0.20795296  0.92294666  0.94877555     0.10490
H1581       H  0.34738889  0.03718323  0.94379793     0.08510
Br1582     Br  0.32105111  0.05417755  0.97128282    -0.02100
C1583       C  0.96157974  0.67740633  0.03827984    -0.08730
C1584       C  0.99547432  0.71503512  0.03454116     0.07460
C1585       C  0.03117342  0.72896624  0.04260449    -0.02500
C1586       C  0.03253497  0.70513747  0.05359076    -0.06950
C1587       C  0.99901707  0.66770987  0.05716294     0.06580
C1588       C  0.96309915  0.65382805  0.04956335    -0.01970
Br1589     Br  0.91653512  0.60220809  0.05347873    -0.01670
H1590       H  0.93392752  0.66593608  0.03224481     0.10490
H1591       H  0.06018738  0.71626553  0.05960834     0.08510
Br1592     Br  0.07951634  0.78028987  0.03981339    -0.02100
C1593       C  0.96014996  0.67106983  0.95850243    -0.08730
C1594       C  0.99209150  0.71084967  0.95936481     0.07460
C1595       C  0.02288897  0.72529777  0.94838906    -0.02500
C1596       C  0.01966732  0.70081753  0.93640253    -0.06950
C1597       C  0.98675075  0.66152972  0.93515039     0.06580
C1598       C  0.95731079  0.64637132  0.94677130    -0.01970
Br1599     Br  0.91121654  0.59284130  0.94745866    -0.01670
H1600       H  0.93667771  0.65892582  0.96697459     0.10490
H1601       H  0.04285297  0.71294997  0.92781425     0.08510
Br1602     Br  0.07003917  0.77803985  0.94866106    -0.02100
loop_ 
_geom_bond_atom_site_label_1 
_geom_bond_atom_site_label_2 
_geom_bond_distance 
_geom_bond_site_symmetry_2 
_ccdc_geom_bond_type 
O1            C4   1.261   1_455  A
O1           Cd6   2.478   1_455  S
C2           O11   1.266   1_556  A
C2            O7   1.265       .  A
C2           C17   1.469       .  S
O3            C9   1.263   1_554  A
O3           Cd6   2.487   1_554  S
C4           O12   1.266       .  A
C4         C1594   1.491       .  S
C5           O10   1.266       .  A
C5            O8   1.263   1_655  A
C5         C1584   1.487       .  S
Cd6          O13   2.497       .  S
Cd6          O12   2.485       .  S
Cd6          O11   2.492   1_656  S
Cd6           O7   2.453   1_655  S
Cd6          O10   2.495   1_556  S
Cd6           O8   2.435   1_656  S
C9           O13   1.264       .  A
C9           C67   1.472       .  S
O14          C17   1.263       .  A
O14         Cd19   2.454       .  S
C15          O24   1.265   1_565  A
C15          O20   1.264       .  A
C15        C1574   1.486       .  S
O16          C22   1.263   1_554  A
O16         Cd19   2.473   1_544  S
C17          O25   1.266   1_556  A
C18          O23   1.267       .  A
C18          O21   1.261       .  A
C18        C1564   1.487       .  S
Cd19         O26   2.508   1_565  S
Cd19         O25   2.498   1_556  S
Cd19         O24   2.472   1_565  S
Cd19         O20   2.476       .  S
Cd19         O23   2.498   1_556  S
Cd19         O21   2.443   1_556  S
C22          O26   1.264       .  A
C22          C41   1.472       .  S
O27          C30   1.263   1_655  A
O27         Cd32   2.473   1_554  S
C28          O37   1.267       .  A
C28          O33   1.265   1_556  A
C28          C56   1.470       .  S
O29          C35   1.264   1_455  A
O29         Cd32   2.500   1_455  S
C30          O38   1.263       .  A
C30        C1544   1.486       .  S
C31          O36   1.264       .  A
C31          O34   1.264   1_556  A
C31          C43   1.473       .  S
Cd32         O39   2.447       .  S
Cd32         O38   2.471   1_656  S
Cd32         O37   2.489       .  S
Cd32         O33   2.460   1_556  S
Cd32         O36   2.486   1_655  S
Cd32         O34   2.497   1_656  S
C35          O39   1.265       .  A
C35        C1554   1.490       .  S
O40          C43   1.265   1_554  A
O40         Cd45   2.506   1_554  S
C41          O50   1.260   1_556  A
C41          O46   1.265       .  A
O42          C48   1.264       .  A
O42         Cd45   2.455       .  S
C43          O51   1.262       .  A
C44          O49   1.266       .  A
C44          O47   1.267       .  A
C44        C1524   1.483       .  S
Cd45         O52   2.487       .  S
Cd45         O51   2.481       .  S
Cd45         O50   2.467   1_556  S
Cd45         O46   2.520       .  S
Cd45         O49   2.441   1_556  S
Cd45         O47   2.481   1_556  S
C48          O52   1.265       .  A
C48        C1534   1.485       .  S
O53          C56   1.264   1_554  A
O53         Cd58   2.466   1_544  S
C54          O63   1.265       .  A
C54          O59   1.266       .  A
C54        C1504   1.491       .  S
O55          C61   1.265       .  A
O55         Cd58   2.483       .  S
C56          O64   1.265       .  A
C57          O62   1.264       .  A
C57          O60   1.264   1_556  A
C57          C69   1.472       .  S
Cd58         O65   2.468       .  S
Cd58         O64   2.492   1_565  S
Cd58         O63   2.466   1_556  S
Cd58         O59   2.478   1_556  S
Cd58         O62   2.479       .  S
Cd58         O60   2.504   1_556  S
C61          O65   1.263       .  A
C61        C1517   1.486       .  S
O66          C69   1.267       .  A
O66         Cd71   2.510       .  S
C67          O76   1.262   1_556  A
C67          O72   1.264       .  A
O68          C74   1.265       .  A
O68         Cd71   2.466   1_554  S
C69          O77   1.262       .  A
C70          O75   1.264       .  A
C70          O73   1.267       .  A
C70        C1494   1.482       .  S
Cd71         O78   2.458   1_556  S
Cd71         O77   2.465       .  S
Cd71         O76   2.485   1_556  S
Cd71         O72   2.503       .  S
Cd71         O75   2.447       .  S
Cd71         O73   2.476       .  S
C74          O78   1.267       .  A
C74        C1484   1.481       .  S
O79          C82   1.262       .  A
O79         Cd84   2.408       .  S
C80          O89   1.267       .  A
C80          O85   1.265       .  A
C80        C1454   1.483       .  S
O81          C87   1.269   1_655  A
O81         Cd84   2.505   1_655  S
C82          O90   1.268   1_455  A
C82        C1474   1.478       .  S
C83          O88   1.270   1_455  A
C83          O86   1.263       .  A
C83        C1464   1.480       .  S
Cd84         O91   2.399       .  S
Cd84         O90   2.494   1_455  S
Cd84         O89   2.451       .  S
Cd84         O85   2.456       .  S
Cd84         O88   2.517   1_455  S
Cd84         O86   2.382       .  S
C87          O91   1.262       .  A
C87        C1587   1.470   1_455  S
O92          C95   1.260       .  A
O92         Cd97   2.407       .  S
C93         O102   1.265       .  A
C93          O98   1.265       .  A
C93        C1434   1.476       .  S
O94         C100   1.269       .  A
O94         Cd97   2.500   1_655  S
C95         O103   1.269       .  A
C95        C1447   1.487       .  S
C96         O101   1.269   1_455  A
C96          O99   1.261       .  A
C96        C1467   1.478       .  S
Cd97        O104   2.401       .  S
Cd97        O103   2.503       .  S
Cd97        O102   2.423       .  S
Cd97         O98   2.457       .  S
Cd97        O101   2.513   1_455  S
Cd97         O99   2.388       .  S
C100        O104   1.261   1_655  A
C100       C1424   1.473       .  S
O105        C108   1.265       .  A
O105       Cd110   2.423       .  S
C106        O115   1.263       .  A
C106        O111   1.266       .  A
C106       C1404   1.468       .  S
O107        C113   1.268       .  A
O107       Cd110   2.499       .  S
C108        O116   1.267       .  A
C108       C1444   1.487       .  S
C109        O114   1.267       .  A
C109        O112   1.264       .  A
C109       C1394   1.476   1_565  S
Cd110       O117   2.400       .  S
Cd110       O116   2.486       .  S
Cd110       O115   2.415       .  S
Cd110       O111   2.461       .  S
Cd110       O114   2.467       .  S
Cd110       O112   2.432       .  S
C113        O117   1.262       .  A
C113       C1414   1.471       .  S
O118        C121   1.270       .  A
O118       Cd123   2.465       .  S
C119        O128   1.269       .  A
C119        O124   1.265       .  A
C119       C1384   1.472       .  S
O120        C126   1.273       .  A
O120       Cd123   2.540       .  S
C121        O129   1.264       .  A
C121       C1364   1.478       .  S
C122        O127   1.273       .  A
C122        O125   1.264       .  A
C122       C1507   1.480       .  S
Cd123       O130   2.364       .  S
Cd123       O129   2.400       .  S
Cd123       O128   2.491       .  S
Cd123       O124   2.405       .  S
Cd123       O127   2.504       .  S
Cd123       O125   2.399       .  S
C126        O130   1.263       .  A
C126       C1377   1.492       .  S
O131        C134   1.265       .  A
O131       Cd136   2.422       .  S
C132        O141   1.263       .  A
C132        O137   1.269       .  A
C132       C1457   1.482       .  S
O133        C139   1.270       .  A
O133       Cd136   2.513       .  S
C134        O142   1.267       .  A
C134       C1387   1.473       .  S
C135        O140   1.268       .  A
C135        O138   1.266       .  A
C135       C1567   1.482       .  S
Cd136       O143   2.381       .  S
Cd136       O142   2.491       .  S
Cd136       O141   2.432       .  S
Cd136       O137   2.477       .  S
Cd136       O140   2.474       .  S
Cd136       O138   2.428       .  S
C139        O143   1.262       .  A
C139       C1417   1.480       .  S
O144        C147   1.267       .  A
O144       Cd149   2.468       .  S
C145        O154   1.266       .  A
C145        O150   1.266       .  A
C145       C1354   1.486       .  S
O146        C152   1.269       .  A
O146       Cd149   2.496       .  S
C147        O155   1.266       .  A
C147       C1334   1.481       .  S
C148        O153   1.271       .  A
C148        O151   1.262       .  A
C148       C1347   1.480       .  S
Cd149       O156   2.417       .  S
Cd149       O155   2.443       .  S
Cd149       O154   2.482       .  S
Cd149       O150   2.423       .  S
Cd149       O153   2.519       .  S
Cd149       O151   2.384       .  S
C152        O156   1.264       .  A
C152       C1324   1.485       .  S
O157        C160   1.262       .  A
O157       Cd162   2.402       .  S
C158        O167   1.264       .  A
C158        O163   1.267       .  A
C158       C1407   1.467       .  S
O159        C165   1.271       .  A
O159       Cd162   2.481       .  S
C160        O168   1.271       .  A
C160       C1357   1.485       .  S
C161        O166   1.272       .  A
C161        O164   1.258       .  A
C161       C1374   1.491       .  S
Cd162       O169   2.422       .  S
Cd162       O168   2.488       .  S
Cd162       O167   2.402       .  S
Cd162       O163   2.458       .  S
Cd162       O166   2.541       .  S
Cd162       O164   2.374       .  S
C165        O169   1.263       .  A
C165       C1314   1.467   1_565  S
O170        C173   1.267       .  A
O170       Cd175   2.465       .  S
C171        O180   1.265       .  A
C171        O176   1.265       .  A
C171       C1307   1.481       .  S
O172        C178   1.268       .  A
O172       Cd175   2.503       .  S
C173        O181   1.266       .  A
C173       C1367   1.479       .  S
C174        O179   1.269       .  A
C174        O177   1.263       .  A
C174       C1344   1.476       .  S
Cd175       O182   2.420       .  S
Cd175       O181   2.414       .  S
Cd175       O180   2.478       .  S
Cd175       O176   2.458       .  S
Cd175       O179   2.504       .  S
Cd175       O177   2.402       .  S
C178        O182   1.261       .  A
C178       C1487   1.471       .  S
O183        C186   1.267       .  A
O183       Cd188   2.470       .  S
C184        O193   1.269       .  A
C184        O189   1.264       .  A
C184       C1304   1.480       .  S
O185        C191   1.272       .  A
O185       Cd188   2.510       .  S
C186        O194   1.263       .  A
C186       C1284   1.472       .  S
C187        O192   1.270       .  A
C187        O190   1.261       .  A
C187       C1527   1.487       .  S
Cd188       O195   2.391       .  S
Cd188       O194   2.414       .  S
Cd188       O193   2.488       .  S
Cd188       O189   2.434       .  S
Cd188       O192   2.505       .  S
Cd188       O190   2.411       .  S
C191        O195   1.262       .  A
C191       C1294   1.482       .  S
O196        C199   1.264       .  A
O196       Cd201   2.429       .  S
C197        O206   1.264       .  A
C197        O202   1.267       .  A
C197       C1337   1.478       .  S
O198        C204   1.266       .  A
O198       Cd201   2.477       .  S
C199        O207   1.268       .  A
C199       C1274   1.482       .  S
C200        O205   1.269       .  A
C200        O203   1.263       .  A
C200       C1297   1.478       .  S
Cd201       O208   2.440       .  S
Cd201       O207   2.500       .  S
Cd201       O206   2.444       .  S
Cd201       O202   2.474       .  S
Cd201       O205   2.511       .  S
Cd201       O203   2.394       .  S
C204        O208   1.265       .  A
C204       C1267   1.486       .  S
O209        C212   1.266       .  A
O209       Cd214   2.424       .  S
C210        O219   1.261       .  A
C210        O215   1.266       .  A
C210       C1437   1.473       .  S
O211        C217   1.268   1_655  A
O211       Cd214   2.494   1_655  S
C212        O220   1.269       .  A
C212       C1277   1.487       .  S
C213        O218   1.268       .  A
C213        O216   1.264   1_655  A
C213       C1247   1.481       .  S
Cd214       O221   2.429       .  S
Cd214       O220   2.497       .  S
Cd214       O219   2.411       .  S
Cd214       O215   2.480       .  S
Cd214       O218   2.490   1_455  S
Cd214       O216   2.437       .  S
C217        O221   1.263       .  A
C217       C1254   1.471       .  S
O222        C225   1.266       .  A
O222       Cd227   2.417       .  S
C223        O232   1.265       .  A
C223        O228   1.268       .  A
C223       C1287   1.472       .  S
O224        C230   1.271   1_655  A
O224       Cd227   2.517   1_655  S
C225        O233   1.267   1_455  A
C225       C1477   1.482       .  S
C226        O231   1.269   1_455  A
C226        O229   1.263       .  A
C226       C1547   1.486       .  S
Cd227       O234   2.409       .  S
Cd227       O233   2.481   1_455  S
Cd227       O232   2.406       .  S
Cd227       O228   2.465       .  S
Cd227       O231   2.494   1_455  S
Cd227       O229   2.415       .  S
C230        O234   1.262       .  A
C230       C1257   1.475       .  S
O235        C238   1.262       .  A
O235       Cd240   2.460       .  S
C236        O245   1.266       .  A
C236        O241   1.262       .  A
C236        C262   1.467       .  S
O237        C243   1.264       .  A
O237       Cd240   2.477       .  S
C238        O246   1.268       .  A
C238       C1234   1.490       .  S
C239        O244   1.268       .  A
C239        O242   1.260       .  A
C239       C1264   1.489       .  S
Cd240       O247   2.509       .  S
Cd240       O246   2.482       .  S
Cd240       O245   2.511       .  S
Cd240       O241   2.434       .  S
Cd240       O244   2.502       .  S
Cd240       O242   2.441       .  S
C243        O247   1.264       .  A
C243        C251   1.473       .  S
O248        C251   1.266       .  A
O248       Cd253   2.520       .  S
C249        O258   1.261       .  A
C249        O254   1.266       .  A
C249        C308   1.471       .  S
O250        C256   1.262       .  A
O250       Cd253   2.433       .  S
C251        O259   1.261       .  A
C252        O257   1.264       .  A
C252        O255   1.266       .  A
C252       C1397   1.485       .  S
Cd253       O260   2.477       .  S
Cd253       O259   2.464       .  S
Cd253       O258   2.461       .  S
Cd253       O254   2.514       .  S
Cd253       O257   2.431       .  S
Cd253       O255   2.474       .  S
C256        O260   1.269       .  A
C256       C1224   1.486       .  S
O261        C264   1.261       .  A
O261       Cd266   2.475       .  S
C262        O271   1.267       .  A
C262        O267   1.262       .  A
O263        C269   1.266       .  A
O263       Cd266   2.485       .  S
C264        O272   1.264       .  A
C264       C1214   1.483       .  S
C265        O270   1.263       .  A
C265        O268   1.262       .  A
C265        C277   1.471       .  S
Cd266       O273   2.450       .  S
Cd266       O272   2.490       .  S
Cd266       O271   2.511       .  S
Cd266       O267   2.432       .  S
Cd266       O270   2.486       .  S
Cd266       O268   2.497       .  S
C269        O273   1.265       .  A
C269       C1327   1.485       .  S
O274        C277   1.266       .  A
O274       Cd279   2.497       .  S
C275        O284   1.262       .  A
C275        O280   1.268       .  A
C275        C291   1.471       .  S
O276        C282   1.265       .  A
O276       Cd279   2.458       .  S
C277        O285   1.263       .  A
C278        O283   1.264       .  A
C278        O281   1.266       .  A
C278       C1207   1.476       .  S
Cd279       O286   2.438       .  S
Cd279       O285   2.470       .  S
Cd279       O284   2.454       .  S
Cd279       O280   2.510       .  S
Cd279       O283   2.459       .  S
Cd279       O281   2.459       .  S
C282        O286   1.266       .  A
C282       C1427   1.471       .  S
O287        C290   1.264       .  A
O287       Cd292   2.498       .  S
C288        O297   1.266       .  A
C288        O293   1.262       .  A
C288        C301   1.468       .  S
O289        C295   1.268       .  A
O289       Cd292   2.484       .  S
C290        O298   1.263       .  A
C290       C1244   1.485       .  S
C291        O296   1.261       .  A
C291        O294   1.260       .  A
Cd292       O299   2.458       .  S
Cd292       O298   2.479       .  S
Cd292       O297   2.507       .  S
Cd292       O293   2.445       .  S
Cd292       O296   2.487       .  S
Cd292       O294   2.515       .  S
C295        O299   1.263       .  A
C295       C1194   1.485       .  S
O300        C303   1.264       .  A
O300       Cd305   2.454       .  S
C301        O310   1.265       .  A
C301        O306   1.261       .  A
O302        C308   1.264       .  A
O302       Cd305   2.468       .  S
C303        O311   1.267       .  A
C303       C1317   1.483       .  S
C304        O309   1.266       .  A
C304        O307   1.263       .  A
C304       C1184   1.483       .  S
Cd305       O312   2.501       .  S
Cd305       O311   2.482       .  S
Cd305       O310   2.510       .  S
Cd305       O306   2.449       .  S
Cd305       O309   2.499       .  S
Cd305       O307   2.436       .  S
C308        O312   1.264       .  A
O313        C316   1.264       .  A
O313       Cd318   2.467   1_545  S
C314        O323   1.270       .  A
C314        O319   1.262       .  A
C314       C1177   1.490       .  S
O315        C321   1.265       .  A
O315       Cd318   2.471   1_545  S
C316        O324   1.261       .  A
C316       C1154   1.474       .  S
C317        O322   1.267       .  A
C317        O320   1.263       .  A
C317       C1164   1.470       .  S
Cd318       O325   2.448       .  S
Cd318       O324   2.430   1_565  S
Cd318       O323   2.496       .  S
Cd318       O319   2.423       .  S
Cd318       O322   2.495       .  S
Cd318       O320   2.419       .  S
C321        O325   1.264   1_545  A
C321       C1227   1.477       .  S
O326        C329   1.263       .  A
O326       Cd331   2.441   1_455  S
C327        O336   1.267       .  A
C327        O332   1.267       .  A
C327       C1134   1.479       .  S
O328        C334   1.267       .  A
O328       Cd331   2.496       .  S
C329        O337   1.265       .  A
C329       C1174   1.490       .  S
C330        O335   1.268       .  A
C330        O333   1.263       .  A
C330       C1144   1.480       .  S
Cd331       O338   2.428       .  S
Cd331       O337   2.496   1_655  S
Cd331       O336   2.418       .  S
Cd331       O332   2.454       .  S
Cd331       O335   2.506       .  S
Cd331       O333   2.419       .  S
C334        O338   1.261       .  A
C334       C1204   1.467       .  S
O339        C342   1.269       .  A
O339       Cd344   2.483       .  S
C340        O349   1.267       .  A
C340        O345   1.266       .  A
C340       C1124   1.489       .  S
O341        C347   1.269       .  A
O341       Cd344   2.505       .  S
C342        O350   1.263       .  A
C342       C1114   1.486       .  S
C343        O348   1.271       .  A
C343        O346   1.263       .  A
C343       C1167   1.478       .  S
Cd344       O351   2.424       .  S
Cd344       O350   2.427       .  S
Cd344       O349   2.487   1_565  S
Cd344       O345   2.435   1_565  S
Cd344       O348   2.514       .  S
Cd344       O346   2.390       .  S
C347        O351   1.262       .  A
C347       C1104   1.484       .  S
O352        C355   1.267       .  A
O352       Cd357   2.455       .  S
C353        O362   1.270       .  A
C353        O358   1.263       .  A
C353       C1127   1.487       .  S
O354        C360   1.270       .  A
O354       Cd357   2.517       .  S
C355        O363   1.263       .  A
C355       C1084   1.472       .  S
C356        O361   1.272       .  A
C356        O359   1.261       .  A
C356       C1074   1.486       .  S
Cd357       O364   2.416       .  S
Cd357       O363   2.415       .  S
Cd357       O362   2.490       .  S
Cd357       O358   2.419       .  S
Cd357       O361   2.506       .  S
Cd357       O359   2.411       .  S
C360        O364   1.263       .  A
C360       C1094   1.480       .  S
O365        C368   1.265       .  A
O365       Cd370   2.477       .  S
C366        O375   1.268       .  A
C366        O371   1.265       .  A
C366       C1064   1.476       .  S
O367        C373   1.265       .  A
O367       Cd370   2.453       .  S
C368        O376   1.264       .  A
C368       C1047   1.480       .  S
C369        O374   1.269       .  A
C369        O372   1.263       .  A
C369       C1054   1.474       .  S
Cd370       O377   2.458       .  S
Cd370       O376   2.437       .  S
Cd370       O375   2.488   1_655  S
Cd370       O371   2.415   1_655  S
Cd370       O374   2.497   1_655  S
Cd370       O372   2.399   1_655  S
C373        O377   1.265       .  A
C373       C1197   1.473       .  S
O378        C381   1.268       .  A
O378       Cd383   2.464       .  S
C379        O388   1.268       .  A
C379        O384   1.265       .  A
C379       C1067   1.482       .  S
O380        C386   1.272       .  A
O380       Cd383   2.527       .  S
C381        O389   1.265       .  A
C381       C1157   1.477       .  S
C382        O387   1.271       .  A
C382        O385   1.262       .  A
C382       C1237   1.481       .  S
Cd383       O390   2.398       .  S
Cd383       O389   2.395       .  S
Cd383       O388   2.492       .  S
Cd383       O384   2.412       .  S
Cd383       O387   2.498       .  S
Cd383       O385   2.416       .  S
C386        O390   1.262       .  A
C386       C1097   1.478       .  S
O391        C394   1.264       .  A
O391       Cd396   2.411   1_655  S
C392        O401   1.265       .  A
C392        O397   1.266       .  A
C392       C1087   1.473       .  S
O393        C399   1.271       .  A
O393       Cd396   2.505       .  S
C394        O402   1.268       .  A
C394       C1034   1.484       .  S
C395        O400   1.268       .  A
C395        O398   1.263       .  A
C395       C1024   1.482       .  S
Cd396       O403   2.388       .  S
Cd396       O402   2.496   1_455  S
Cd396       O401   2.422       .  S
Cd396       O397   2.451       .  S
Cd396       O400   2.493       .  S
Cd396       O398   2.408       .  S
C399        O403   1.261       .  A
C399       C1057   1.477       .  S
O404        C407   1.266       .  A
O404       Cd409   2.463       .  S
C405        O414   1.268       .  A
C405        O410   1.262       .  A
C405       C1037   1.482       .  S
O406        C412   1.269       .  A
O406       Cd409   2.508       .  S
C407        O415   1.263       .  A
C407       C1004   1.476       .  S
C408        O413   1.267       .  A
C408        O411   1.263       .  A
C408        C997   1.480       .  S
Cd409       O416   2.384       .  S
Cd409       O415   2.427       .  S
Cd409       O414   2.494   1_565  S
Cd409       O410   2.413   1_565  S
Cd409       O413   2.483       .  S
Cd409       O411   2.411       .  S
C412        O416   1.263       .  A
C412       C1014   1.485       .  S
O417        C420   1.266       .  A
O417       Cd422   2.444       .  S
C418        O427   1.265       .  A
C418        O423   1.266       .  A
C418       C1117   1.487       .  S
O419        C425   1.269   1_655  A
O419       Cd422   2.510       .  S
C420        O428   1.267       .  A
C420        C984   1.475       .  S
C421        O426   1.271       .  A
C421        O424   1.264       .  A
C421       C1147   1.476       .  S
Cd422       O429   2.413       .  S
Cd422       O428   2.474       .  S
Cd422       O427   2.439   1_655  S
Cd422       O423   2.478   1_655  S
Cd422       O426   2.501       .  S
Cd422       O424   2.403       .  S
C425        O429   1.263   1_455  A
C425        C974   1.481       .  S
O430        C433   1.267       .  A
O430       Cd435   2.447       .  S
C431        O440   1.265       .  A
C431        O436   1.269       .  A
C431       C1007   1.476       .  S
O432        C438   1.273       .  A
O432       Cd435   2.514       .  S
C433        O441   1.267       .  A
C433        C987   1.474       .  S
C434        O439   1.272       .  A
C434        O437   1.263       .  A
C434        C954   1.485       .  S
Cd435       O442   2.389       .  S
Cd435       O441   2.461       .  S
Cd435       O440   2.395       .  S
Cd435       O436   2.473       .  S
Cd435       O439   2.490       .  S
Cd435       O437   2.417       .  S
C438        O442   1.263       .  A
C438        C964   1.484       .  S
O443        C446   1.266       .  A
O443       Cd448   2.428       .  S
C444        O453   1.264       .  A
C444        O449   1.268       .  A
C444       C1044   1.484       .  S
O445        C451   1.270       .  A
O445       Cd448   2.496       .  S
C446        O454   1.266       .  A
C446        C947   1.487       .  S
C447        O452   1.271       .  A
C447        O450   1.261       .  A
C447       C1017   1.475       .  S
Cd448       O455   2.398       .  S
Cd448       O454   2.478       .  S
Cd448       O453   2.435   1_565  S
Cd448       O449   2.465   1_565  S
Cd448       O452   2.511       .  S
Cd448       O450   2.375       .  S
C451        O455   1.260       .  A
C451       C1187   1.486       .  S
O456        C459   1.264       .  A
O456       Cd461   2.417       .  S
C457        O466   1.262       .  A
C457        O462   1.269       .  A
C457       C1137   1.477       .  S
O458        C464   1.272       .  A
O458       Cd461   2.527       .  S
C459        O467   1.270       .  A
C459        C944   1.486       .  S
C460        O465   1.272       .  A
C460        O463   1.263       .  A
C460       C1217   1.482       .  S
Cd461       O468   2.383       .  S
Cd461       O467   2.481       .  S
Cd461       O466   2.399       .  S
Cd461       O462   2.464       .  S
Cd461       O465   2.489       .  S
Cd461       O463   2.416       .  S
C464        O468   1.263       .  A
C464        C967   1.488       .  S
O469        C472   1.267       .  A
O469       Cd474   2.478       .  S
C470        O479   1.268   1_545  A
C470        O475   1.266       .  A
C470        C934   1.484       .  S
O471        C477   1.270       .  A
O471       Cd474   2.511   1_565  S
C472        O480   1.263       .  A
C472        C917   1.480       .  S
C473        O478   1.266       .  A
C473        O476   1.265       .  A
C473       C1514   1.477       .  S
Cd474       O481   2.388       .  S
Cd474       O480   2.435       .  S
Cd474       O479   2.489   1_545  S
Cd474       O475   2.426       .  S
Cd474       O478   2.460   1_545  S
Cd474       O476   2.460   1_545  S
C477        O481   1.261   1_565  A
C477        C924   1.475       .  S
O482        C485   1.264       .  A
O482       Cd487   2.438       .  S
C483        O492   1.264       .  A
C483        O488   1.266       .  A
C483        C884   1.482       .  S
O484        C490   1.270       .  A
O484       Cd487   2.511       .  S
C485        O493   1.269       .  A
C485        C904   1.485       .  S
C486        O491   1.269   1_655  A
C486        O489   1.263       .  A
C486        C877   1.480   1_655  S
Cd487       O494   2.393       .  S
Cd487       O493   2.487       .  S
Cd487       O492   2.412       .  S
Cd487       O488   2.474       .  S
Cd487       O491   2.490   1_655  S
Cd487       O489   2.422       .  S
C490        O494   1.261       .  A
C490        C894   1.484       .  S
O495        C498   1.266       .  A
O495       Cd500   2.438       .  S
C496        O505   1.263   1_545  A
C496        O501   1.266       .  A
C496        C864   1.475       .  S
O497        C503   1.265       .  A
O497       Cd500   2.468   1_565  S
C498        O506   1.268       .  A
C498        C907   1.488       .  S
C499        O504   1.269   1_545  A
C499        O502   1.263       .  A
C499        C927   1.486   1_545  S
Cd500       O507   2.455   1_545  S
Cd500       O506   2.488       .  S
Cd500       O505   2.407   1_545  S
Cd500       O501   2.477       .  S
Cd500       O504   2.508   1_545  S
Cd500       O502   2.396       .  S
C503        O507   1.264       .  A
C503        C854   1.474       .  S
O508        C511   1.267       .  A
O508       Cd513   2.458       .  S
C509        O518   1.269       .  A
C509        O514   1.266       .  A
C509        C844   1.489       .  S
O510        C516   1.272   1_455  A
O510       Cd513   2.530   1_455  S
C511        O519   1.264       .  A
C511        C827   1.463       .  S
C512        O517   1.274   1_655  A
C512        O515   1.261       .  A
C512       C1597   1.491       .  S
Cd513       O520   2.394       .  S
Cd513       O519   2.407       .  S
Cd513       O518   2.488       .  S
Cd513       O514   2.413       .  S
Cd513       O517   2.503   1_655  S
Cd513       O515   2.408       .  S
C516        O520   1.263       .  A
C516        C834   1.482       .  S
O521        C524   1.262       .  A
O521       Cd526   2.419       .  S
C522        O531   1.267       .  A
C522        O527   1.266       .  A
C522        C914   1.482       .  S
O523        C529   1.271       .  A
O523       Cd526   2.521       .  S
C524        O532   1.268       .  A
C524        C847   1.486       .  S
C525        O530   1.270       .  A
C525        O528   1.262       .  A
C525       C1557   1.474       .  S
Cd526       O533   2.382       .  S
Cd526       O532   2.496       .  S
Cd526       O531   2.446       .  S
Cd526       O527   2.461       .  S
Cd526       O530   2.508       .  S
Cd526       O528   2.414       .  S
C529        O533   1.263       .  A
C529        C897   1.484       .  S
O534        C537   1.268       .  A
O534       Cd539   2.467       .  S
C535        O544   1.270       .  A
C535        O540   1.263       .  A
C535        C814   1.480       .  S
O536        C542   1.272       .  A
O536       Cd539   2.527       .  S
C537        O545   1.262       .  A
C537        C887   1.480       .  S
C538        O543   1.270       .  A
C538        O541   1.263   1_455  A
C538        C807   1.483       .  S
Cd539       O546   2.392       .  S
Cd539       O545   2.401       .  S
Cd539       O544   2.490       .  S
Cd539       O540   2.400       .  S
Cd539       O543   2.489   1_655  S
Cd539       O541   2.424       .  S
C542        O546   1.262       .  A
C542        C837   1.481       .  S
O547        C550   1.267       .  A
O547       Cd552   2.473       .  S
C548        O557   1.266       .  A
C548        O553   1.265       .  A
C548        C817   1.480       .  S
O549        C555   1.266       .  A
O549       Cd552   2.476       .  S
C550        O558   1.266       .  A
C550        C784   1.483       .  S
C551        O556   1.268       .  A
C551        O554   1.261       .  A
C551        C794   1.471       .  S
Cd552       O559   2.446       .  S
Cd552       O558   2.437       .  S
Cd552       O557   2.487       .  S
Cd552       O553   2.422       .  S
Cd552       O556   2.511       .  S
Cd552       O554   2.404       .  S
C555        O559   1.265       .  A
C555        C774   1.487       .  S
O560        C563   1.264       .  A
O560       Cd565   2.468       .  S
C561        O570   1.270       .  A
C561        O566   1.265       .  A
C561        C764   1.487       .  S
O562        C568   1.269       .  A
O562       Cd565   2.493       .  S
C563        O571   1.261       .  A
C563        C824   1.467       .  S
C564        O569   1.266       .  A
C564        O567   1.261       .  A
C564        C797   1.476       .  S
Cd565       O572   2.422       .  S
Cd565       O571   2.425       .  S
Cd565       O570   2.487       .  S
Cd565       O566   2.434       .  S
Cd565       O569   2.507       .  S
Cd565       O567   2.423       .  S
C568        O572   1.264       .  A
C568       C1497   1.485       .  S
O573        C576   1.265       .  A
O573       Cd578   2.445       .  S
C574        O583   1.265       .  A
C574        O579   1.266       .  A
C574        C744   1.482       .  S
O575        C581   1.269       .  A
O575       Cd578   2.501       .  S
C576        O584   1.267       .  A
C576        C767   1.489       .  S
C577        O582   1.269       .  A
C577        O580   1.263       .  A
C577        C754   1.485       .  S
Cd578       O585   2.425       .  S
Cd578       O584   2.494       .  S
Cd578       O583   2.417       .  S
Cd578       O579   2.464       .  S
Cd578       O582   2.517       .  S
Cd578       O580   2.410       .  S
C581        O585   1.261       .  A
C581       C1537   1.488       .  S
O586        C589   1.263       .  A
O586       Cd591   2.427       .  S
C587        O596   1.263       .  A
C587        O592   1.266       .  A
C587        C787   1.482       .  S
O588        C594   1.268       .  A
O588       Cd591   2.500       .  S
C589        O597   1.269       .  A
C589        C734   1.488       .  S
C590        O595   1.270       .  A
C590        O593   1.262       .  A
C590        C757   1.476       .  S
Cd591       O598   2.431       .  S
Cd591       O597   2.494       .  S
Cd591       O596   2.445       .  S
Cd591       O592   2.474       .  S
Cd591       O595   2.514       .  S
Cd591       O593   2.403       .  S
C594        O598   1.264       .  A
C594        C727   1.488       .  S
O599        C602   1.267       .  A
O599       Cd604   2.430       .  S
C600        O609   1.262   1_545  A
C600        O605   1.269       .  A
C600        C867   1.474       .  S
O601        C607   1.271       .  A
O601       Cd604   2.521   1_565  S
C602        O610   1.268       .  A
C602        C737   1.489       .  S
C603        O608   1.268       .  A
C603        O606   1.263       .  A
C603        C704   1.480       .  S
Cd604       O611   2.412       .  S
Cd604       O610   2.482       .  S
Cd604       O609   2.395   1_545  S
Cd604       O605   2.476       .  S
Cd604       O608   2.486   1_545  S
Cd604       O606   2.452   1_545  S
C607        O611   1.262   1_565  A
C607        C717   1.477       .  S
O612        C615   1.264       .  A
O612       Cd617   2.413       .  S
C613        O622   1.261       .  A
C613        O618   1.267       .  A
C613        C747   1.478       .  S
O614        C620   1.270       .  A
O614       Cd617   2.505   1_565  S
C615        O623   1.270   1_545  A
C615        C937   1.487       .  S
C616        O621   1.270       .  A
C616        O619   1.263   1_565  A
C616       C1577   1.490       .  S
Cd617       O624   2.428       .  S
Cd617       O623   2.493   1_545  S
Cd617       O622   2.412       .  S
Cd617       O618   2.470       .  S
Cd617       O621   2.507   1_545  S
Cd617       O619   2.416       .  S
C620        O624   1.263   1_565  A
C620        C714   1.475       .  S
O625        C628   1.263       .  A
O625       Cd630   2.479       .  S
C626        O635   1.269       .  A
C626        O631   1.263       .  A
C626        C641   1.471       .  S
O627        C633   1.263       .  A
O627       Cd630   2.488       .  S
C628        O636   1.262       .  A
C628        C804   1.487       .  S
C629        O634   1.267       .  A
C629        O632   1.263       .  A
C629        C977   1.491       .  S
Cd630       O637   2.511       .  S
Cd630       O636   2.481       .  S
Cd630       O635   2.520       .  S
Cd630       O631   2.433       .  S
Cd630       O634   2.503       .  S
Cd630       O632   2.447       .  S
C633        O637   1.262       .  A
C633        C665   1.474       .  S
O638        C641   1.263       .  A
O638       Cd643   2.440       .  S
C639        O648   1.262       .  A
C639        O644   1.263       .  A
C639        C707   1.486       .  S
O640        C646   1.264       .  A
O640       Cd643   2.482       .  S
C641        O649   1.267       .  A
C642        O647   1.266       .  A
C642        O645   1.266       .  A
C642       C1107   1.493       .  S
Cd643       O650   2.503       .  S
Cd643       O649   2.522       .  S
Cd643       O648   2.485       .  S
Cd643       O644   2.490       .  S
Cd643       O647   2.504       .  S
Cd643       O645   2.444       .  S
C646        O650   1.262       .  A
C646        C678   1.472       .  S
O651        C654   1.262       .  A
O651       Cd656   2.462       .  S
C652        O661   1.266       .  A
C652        O657   1.261       .  A
C652        C691   1.467       .  S
O653        C659   1.264       .  A
O653       Cd656   2.483       .  S
C654        O662   1.267       .  A
C654       C1077   1.484       .  S
C655        O660   1.268       .  A
C655        O658   1.262       .  A
C655        C724   1.489       .  S
Cd656       O663   2.510       .  S
Cd656       O662   2.487       .  S
Cd656       O661   2.518       .  S
Cd656       O657   2.429       .  S
Cd656       O660   2.508       .  S
Cd656       O658   2.447       .  S
C659        O663   1.262       .  A
C659        C667   1.474       .  S
O664        C667   1.266       .  A
O664       Cd669   2.524       .  S
C665        O674   1.262       .  A
C665        O670   1.267       .  A
O666        C672   1.264       .  A
O666       Cd669   2.429       .  S
C667        O675   1.260       .  A
C668        O673   1.265       .  A
C668        O671   1.266       .  A
C668        C874   1.487       .  S
Cd669       O676   2.481       .  S
Cd669       O675   2.466       .  S
Cd669       O674   2.467       .  S
Cd669       O670   2.517       .  S
Cd669       O673   2.441       .  S
Cd669       O671   2.481       .  S
C672        O676   1.266       .  A
C672       C1027   1.471       .  S
O677        C680   1.266       .  A
O677       Cd682   2.522       .  S
C678        O687   1.261       .  A
C678        O683   1.267       .  A
O679        C685   1.262       .  A
O679       Cd682   2.435       .  S
C680        O688   1.260       .  A
C680        C694   1.473       .  S
C681        O686   1.263       .  A
C681        O684   1.267       .  A
C681        C994   1.471       .  S
Cd682       O689   2.483       .  S
Cd682       O688   2.466       .  S
Cd682       O687   2.461       .  S
Cd682       O683   2.513       .  S
Cd682       O686   2.420       .  S
Cd682       O684   2.477       .  S
C685        O689   1.268       .  A
C685        C857   1.483       .  S
O690        C693   1.262       .  A
O690       Cd695   2.466       .  S
C691        O700   1.265       .  A
C691        O696   1.260       .  A
O692        C698   1.267       .  A
O692       Cd695   2.481       .  S
C693        O701   1.266       .  A
C693        C957   1.481       .  S
C694        O699   1.262       .  A
C694        O697   1.262       .  A
Cd695       O702   2.459       .  S
Cd695       O701   2.488       .  S
Cd695       O700   2.522       .  S
Cd695       O696   2.433       .  S
Cd695       O699   2.480       .  S
Cd695       O697   2.517       .  S
C698        O702   1.264       .  A
C698        C777   1.488       .  S
C703        C704   1.404       .  A
C703        C708   1.401       .  A
C703        H710   1.083       .  S
C704        C705   1.409       .  A
C705        C706   1.401       .  A
C705       Br712   1.920       .  S
C706        C707   1.407       .  A
C706        H711   1.083       .  S
C707        C708   1.413       .  A
C708       Br709   1.921       .  S
C713        C714   1.401       .  A
C713        C718   1.396       .  A
C713        H720   1.083       .  S
C714        C715   1.411       .  A
C715        C716   1.406       .  A
C715       Br722   1.919   1_565  S
C716        C717   1.404       .  A
C716        H721   1.083       .  S
C717        C718   1.411       .  A
C718       Br719   1.922       .  S
C723        C724   1.408       .  A
C723        C728   1.406       .  A
C723        H730   1.083       .  S
C724        C725   1.414       .  A
C725        C726   1.396       .  A
C725       Br732   1.923       .  S
C726        C727   1.405       .  A
C726        H731   1.083       .  S
C727        C728   1.413       .  A
C728       Br729   1.919       .  S
C733        C734   1.407       .  A
C733        C738   1.404       .  A
C733        H740   1.083       .  S
C734        C735   1.415       .  A
C735        C736   1.395       .  A
C735       Br742   1.924       .  S
C736        C737   1.405       .  A
C736        H741   1.083       .  S
C737        C738   1.416       .  A
C738       Br739   1.921       .  S
C743        C744   1.405       .  A
C743        C748   1.393       .  A
C743        H750   1.083       .  S
C744        C745   1.414       .  A
C745        C746   1.400       .  A
C745       Br752   1.921       .  S
C746        C747   1.405       .  A
C746        H751   1.083       .  S
C747        C748   1.413       .  A
C748       Br749   1.925       .  S
C753        C754   1.405       .  A
C753        C758   1.393       .  A
C753        H760   1.083       .  S
C754        C755   1.414       .  A
C755        C756   1.407       .  A
C755       Br762   1.918       .  S
C756        C757   1.405       .  A
C756        H761   1.083       .  S
C757        C758   1.408       .  A
C758       Br759   1.924       .  S
C763        C764   1.406       .  A
C763        C768   1.404       .  A
C763        H770   1.083       .  S
C764        C765   1.413       .  A
C765        C766   1.398       .  A
C765       Br772   1.922       .  S
C766        C767   1.406       .  A
C766        H771   1.083       .  S
C767        C768   1.415       .  A
C768       Br769   1.920       .  S
C773        C774   1.406       .  A
C773        C778   1.399       .  A
C773        H780   1.083       .  S
C774        C775   1.415       .  A
C775        C776   1.401       .  A
C775       Br782   1.921       .  S
C776        C777   1.406       .  A
C776        H781   1.083       .  S
C777        C778   1.415       .  A
C778       Br779   1.923       .  S
C783        C784   1.405       .  A
C783        C788   1.396       .  A
C783        H790   1.083       .  S
C784        C785   1.414       .  A
C785        C786   1.401       .  A
C785       Br792   1.921       .  S
C786        C787   1.405       .  A
C786        H791   1.083       .  S
C787        C788   1.413       .  A
C788       Br789   1.922       .  S
C793        C794   1.404       .  A
C793        C798   1.405       .  A
C793        H800   1.084       .  S
C794        C795   1.408       .  A
C795        C796   1.392       .  A
C795       Br802   1.922       .  S
C796        C797   1.402       .  A
C796        H801   1.084       .  S
C797        C798   1.413       .  A
C798       Br799   1.920       .  S
C803        C804   1.406       .  A
C803        C808   1.400       .  A
C803        H810   1.083       .  S
C804        C805   1.415       .  A
C805        C806   1.400       .  A
C805       Br812   1.923       .  S
C806        C807   1.405       .  A
C806        H811   1.084   1_455  S
C807        C808   1.412       .  A
C808       Br809   1.920       .  S
C813        C814   1.406       .  A
C813        C818   1.404       .  A
C813        H820   1.084       .  S
C814        C815   1.413       .  A
C815        C816   1.391       .  A
C815       Br822   1.924       .  S
C816        C817   1.402       .  A
C816        H821   1.084       .  S
C817        C818   1.413       .  A
C818       Br819   1.919       .  S
C823        C824   1.402       .  A
C823        C828   1.392       .  A
C823        H830   1.084       .  S
C824        C825   1.409       .  A
C825        C826   1.398       .  A
C825       Br832   1.919       .  S
C826        C827   1.402       .  A
C826        H831   1.083       .  S
C827        C828   1.407       .  A
C828       Br829   1.922       .  S
C833        C834   1.402       .  A
C833        C838   1.392       .  A
C833        H840   1.084       .  S
C834        C835   1.413       .  A
C835        C836   1.409       .  A
C835       Br842   1.917   1_655  S
C836        C837   1.407       .  A
C836        H841   1.083   1_655  S
C837        C838   1.413       .  A
C838       Br839   1.925       .  S
C843        C844   1.405       .  A
C843        C848   1.393       .  A
C843        H850   1.083       .  S
C844        C845   1.415   1_655  A
C845        C846   1.405   1_455  A
C845       Br852   1.921       .  S
C846        C847   1.407       .  A
C846        H851   1.083   1_655  S
C847        C848   1.415       .  A
C848       Br849   1.925       .  S
C853        C854   1.400       .  A
C853        C858   1.399       .  A
C853        H860   1.084       .  S
C854        C855   1.411       .  A
C855        C856   1.399       .  A
C855       Br862   1.921       .  S
C856        C857   1.404       .  A
C856        H861   1.084       .  S
C857        C858   1.417       .  A
C858       Br859   1.922       .  S
C863        C864   1.403   1_565  A
C863        C868   1.391       .  A
C863        H870   1.084       .  S
C864        C865   1.412       .  A
C865        C866   1.400       .  A
C865       Br872   1.920       .  S
C866        C867   1.404       .  A
C866        H871   1.083       .  S
C867        C868   1.412   1_545  A
C868       Br869   1.924       .  S
C873        C874   1.406       .  A
C873        C878   1.396       .  A
C873        H880   1.083       .  S
C874        C875   1.416       .  A
C875        C876   1.402       .  A
C875       Br882   1.921       .  S
C876        C877   1.404       .  A
C876        H881   1.083       .  S
C877        C878   1.411       .  A
C878       Br879   1.922   1_455  S
C883        C884   1.404       .  A
C883        C888   1.392       .  A
C883        H890   1.083   1_655  S
C884        C885   1.414       .  A
C885        C886   1.400       .  A
C885       Br892   1.921       .  S
C886        C887   1.406       .  A
C886        H891   1.083       .  S
C887        C888   1.415       .  A
C888       Br889   1.926   1_655  S
C893        C894   1.408       .  A
C893        C898   1.407       .  A
C893        H900   1.083   1_655  S
C894        C895   1.414       .  A
C895        C896   1.390       .  A
C895       Br902   1.926       .  S
C896        C897   1.403       .  A
C896        H901   1.084       .  S
C897        C898   1.413       .  A
C898       Br899   1.918   1_655  S
C903        C904   1.406       .  A
C903        C908   1.403       .  A
C903        H910   1.083       .  S
C904        C905   1.412       .  A
C905        C906   1.397       .  A
C905       Br912   1.922       .  S
C906        C907   1.406       .  A
C906        H911   1.083       .  S
C907        C908   1.415       .  A
C908       Br909   1.920       .  S
C913        C914   1.404       .  A
C913        C918   1.396       .  A
C913        H920   1.083       .  S
C914        C915   1.413       .  A
C915        C916   1.400       .  A
C915       Br922   1.921       .  S
C916        C917   1.404       .  A
C916        H921   1.083       .  S
C917        C918   1.413       .  A
C918       Br919   1.923       .  S
C923        C924   1.404       .  A
C923        C928   1.406       .  A
C923        H930   1.083       .  S
C924        C925   1.408   1_565  A
C925        C926   1.390       .  A
C925       Br932   1.925       .  S
C926        C927   1.406   1_545  A
C926        H931   1.083       .  S
C927        C928   1.416       .  A
C928       Br929   1.919       .  S
C933        C934   1.402       .  A
C933        C938   1.394       .  A
C933        H940   1.084       .  S
C934        C935   1.413   1_545  A
C935        C936   1.405       .  A
C935       Br942   1.919       .  S
C936        C937   1.408   1_565  A
C936        H941   1.084       .  S
C937        C938   1.416       .  A
C938       Br939   1.925       .  S
C943        C944   1.406       .  A
C943        C948   1.402       .  A
C943        H950   1.084       .  S
C944        C945   1.415       .  A
C945        C946   1.394       .  A
C945       Br952   1.924       .  S
C946        C947   1.404       .  A
C946        H951   1.084       .  S
C947        C948   1.416       .  A
C948       Br949   1.921       .  S
C953        C954   1.405       .  A
C953        C958   1.401       .  A
C953        H960   1.083       .  S
C954        C955   1.416       .  A
C955        C956   1.400       .  A
C955       Br962   1.922       .  S
C956        C957   1.403       .  A
C956        H961   1.084       .  S
C957        C958   1.411       .  A
C958       Br959   1.920       .  S
C963        C964   1.408       .  A
C963        C968   1.408       .  A
C963        H970   1.083       .  S
C964        C965   1.413       .  A
C965        C966   1.391       .  A
C965       Br972   1.926       .  S
C966        C967   1.405       .  A
C966        H971   1.084       .  S
C967        C968   1.414       .  A
C968       Br969   1.918       .  S
C973        C974   1.402       .  A
C973        C978   1.394       .  A
C973        H980   1.084       .  S
C974        C975   1.409       .  A
C975        C976   1.406       .  A
C975       Br982   1.918   1_455  S
C976        C977   1.412       .  A
C976        H981   1.083       .  S
C977        C978   1.416       .  A
C978       Br979   1.924       .  S
C983        C984   1.404       .  A
C983        C988   1.400       .  A
C983        H990   1.084       .  S
C984        C985   1.409       .  A
C985        C986   1.398       .  A
C985       Br992   1.919       .  S
C986        C987   1.403       .  A
C986        H991   1.083       .  S
C987        C988   1.411       .  A
C988       Br989   1.921       .  S
C993        C994   1.404       .  A
C993        C998   1.402       .  A
C993       H1000   1.083       .  S
C994        C995   1.407       .  A
C995        C996   1.392       .  A
C995      Br1002   1.923       .  S
C996        C997   1.406       .  A
C996       H1001   1.083       .  S
C997        C998   1.413       .  A
C998       Br999   1.919       .  S
C1003      C1004   1.406       .  A
C1003      C1008   1.400       .  A
C1003      H1010   1.084       .  S
C1004      C1005   1.412       .  A
C1005      C1006   1.392       .  A
C1005     Br1012   1.923       .  S
C1006      C1007   1.404       .  A
C1006      H1011   1.085       .  S
C1007      C1008   1.411       .  A
C1008     Br1009   1.920       .  S
C1013      C1014   1.405       .  A
C1013      C1018   1.388       .  A
C1013      H1020   1.083       .  S
C1014      C1015   1.416       .  A
C1015      C1016   1.406       .  A
C1015     Br1022   1.919       .  S
C1016      C1017   1.405       .  A
C1016      H1021   1.083       .  S
C1017      C1018   1.410       .  A
C1018     Br1019   1.925       .  S
C1023      C1024   1.407       .  A
C1023      C1028   1.392       .  A
C1023      H1030   1.083       .  S
C1024      C1025   1.413       .  A
C1025      C1026   1.403       .  A
C1025     Br1032   1.919       .  S
C1026      C1027   1.404       .  A
C1026      H1031   1.084       .  S
C1027      C1028   1.406       .  A
C1028     Br1029   1.922       .  S
C1033      C1034   1.404       .  A
C1033      C1038   1.392       .  A
C1033      H1040   1.083       .  S
C1034      C1035   1.413       .  A
C1035      C1036   1.404       .  A
C1035     Br1042   1.919       .  S
C1036      C1037   1.407       .  A
C1036      H1041   1.083       .  S
C1037      C1038   1.414       .  A
C1038     Br1039   1.925       .  S
C1043      C1044   1.407       .  A
C1043      C1048   1.400       .  A
C1043      H1050   1.083       .  S
C1044      C1045   1.415       .  A
C1045      C1046   1.396       .  A
C1045     Br1052   1.923       .  S
C1046      C1047   1.403       .  A
C1046      H1051   1.084       .  S
C1047      C1048   1.411       .  A
C1048     Br1049   1.921       .  S
C1053      C1054   1.400       .  A
C1053      C1058   1.391       .  A
C1053      H1060   1.084       .  S
C1054      C1055   1.410   1_455  A
C1055      C1056   1.404       .  A
C1055     Br1062   1.918       .  S
C1056      C1057   1.405   1_655  A
C1056      H1061   1.083       .  S
C1057      C1058   1.414       .  A
C1058     Br1059   1.925       .  S
C1063      C1064   1.405       .  A
C1063      C1068   1.406       .  A
C1063      H1070   1.083       .  S
C1064      C1065   1.410       .  A
C1065      C1066   1.391       .  A
C1065     Br1072   1.924       .  S
C1066      C1067   1.403       .  A
C1066      H1071   1.083       .  S
C1067      C1068   1.414       .  A
C1068     Br1069   1.920       .  S
C1073      C1074   1.405       .  A
C1073      C1078   1.402       .  A
C1073      H1080   1.083       .  S
C1074      C1075   1.416       .  A
C1075      C1076   1.399       .  A
C1075     Br1082   1.923       .  S
C1076      C1077   1.402       .  A
C1076      H1081   1.084       .  S
C1077      C1078   1.414       .  A
C1078     Br1079   1.921       .  S
C1083      C1084   1.404       .  A
C1083      C1088   1.397       .  A
C1083      H1090   1.083       .  S
C1084      C1085   1.411       .  A
C1085      C1086   1.393       .  A
C1085     Br1092   1.923       .  S
C1086      C1087   1.403       .  A
C1086      H1091   1.083       .  S
C1087      C1088   1.411       .  A
C1088     Br1089   1.921       .  S
C1093      C1094   1.402       .  A
C1093      C1098   1.394       .  A
C1093      H1100   1.084       .  S
C1094      C1095   1.413       .  A
C1095      C1096   1.407       .  A
C1095     Br1102   1.918       .  S
C1096      C1097   1.404       .  A
C1096      H1101   1.083       .  S
C1097      C1098   1.411       .  A
C1098     Br1099   1.923       .  S
C1103      C1104   1.405       .  A
C1103      C1108   1.407       .  A
C1103      H1110   1.084       .  S
C1104      C1105   1.414       .  A
C1105      C1106   1.394       .  A
C1105     Br1112   1.925       .  S
C1106      C1107   1.405       .  A
C1106      H1111   1.083       .  S
C1107      C1108   1.418       .  A
C1108     Br1109   1.920       .  S
C1113      C1114   1.406       .  A
C1113      C1118   1.402       .  A
C1113      H1120   1.083       .  S
C1114      C1115   1.416       .  A
C1115      C1116   1.396       .  A
C1115     Br1122   1.924       .  S
C1116      C1117   1.405       .  A
C1116      H1121   1.083       .  S
C1117      C1118   1.414       .  A
C1118     Br1119   1.920       .  S
C1123      C1124   1.405       .  A
C1123      C1128   1.395       .  A
C1123      H1130   1.084       .  S
C1124      C1125   1.416       .  A
C1125      C1126   1.403       .  A
C1125     Br1132   1.921       .  S
C1126      C1127   1.406       .  A
C1126      H1131   1.084       .  S
C1127      C1128   1.415       .  A
C1128     Br1129   1.924       .  S
C1133      C1134   1.404       .  A
C1133      C1138   1.393       .  A
C1133      H1140   1.083       .  S
C1134      C1135   1.414       .  A
C1135      C1136   1.399       .  A
C1135     Br1142   1.921       .  S
C1136      C1137   1.404       .  A
C1136      H1141   1.083       .  S
C1137      C1138   1.414       .  A
C1138     Br1139   1.925       .  S
C1143      C1144   1.404       .  A
C1143      C1148   1.393       .  A
C1143      H1150   1.084       .  S
C1144      C1145   1.413       .  A
C1145      C1146   1.405       .  A
C1145     Br1152   1.918   1_655  S
C1146      C1147   1.404       .  A
C1146      H1151   1.083   1_655  S
C1147      C1148   1.409       .  A
C1148     Br1149   1.924       .  S
C1153      C1154   1.405       .  A
C1153      C1158   1.399       .  A
C1153      H1160   1.084       .  S
C1154      C1155   1.410       .  A
C1155      C1156   1.391       .  A
C1155     Br1162   1.922       .  S
C1156      C1157   1.404       .  A
C1156      H1161   1.084       .  S
C1157      C1158   1.413       .  A
C1158     Br1159   1.920       .  S
C1163      C1164   1.405   1_545  A
C1163      C1168   1.405       .  A
C1163      H1170   1.084       .  S
C1164      C1165   1.405       .  A
C1165      C1166   1.391       .  A
C1165     Br1172   1.922       .  S
C1166      C1167   1.404       .  A
C1166      H1171   1.084       .  S
C1167      C1168   1.412   1_565  A
C1168     Br1169   1.919       .  S
C1173      C1174   1.405       .  A
C1173      C1178   1.396       .  A
C1173      H1180   1.083       .  S
C1174      C1175   1.415       .  A
C1175      C1176   1.404       .  A
C1175     Br1182   1.920       .  S
C1176      C1177   1.407       .  A
C1176      H1181   1.083       .  S
C1177      C1178   1.417       .  A
C1178     Br1179   1.925       .  S
C1183      C1184   1.402       .  A
C1183      C1188   1.394   1_545  A
C1183      H1190   1.083       .  S
C1184      C1185   1.412       .  A
C1185      C1186   1.403       .  A
C1185     Br1192   1.919       .  S
C1186      C1187   1.407   1_545  A
C1186      H1191   1.083       .  S
C1187      C1188   1.417       .  A
C1188     Br1189   1.925       .  S
C1193      C1194   1.404       .  A
C1193      C1198   1.398       .  A
C1193      H1200   1.083       .  S
C1194      C1195   1.417       .  A
C1195      C1196   1.400       .  A
C1195     Br1202   1.918       .  S
C1196      C1197   1.400       .  A
C1196      H1201   1.084   1_655  S
C1197      C1198   1.411       .  A
C1198     Br1199   1.921       .  S
C1203      C1204   1.400       .  A
C1203      C1208   1.402       .  A
C1203      H1210   1.083       .  S
C1204      C1205   1.408       .  A
C1205      C1206   1.395       .  A
C1205     Br1212   1.921       .  S
C1206      C1207   1.402       .  A
C1206      H1211   1.084       .  S
C1207      C1208   1.414       .  A
C1208     Br1209   1.919       .  S
C1213      C1214   1.404       .  A
C1213      C1218   1.399       .  A
C1213      H1220   1.084       .  S
C1214      C1215   1.413       .  A
C1215      C1216   1.401       .  A
C1215     Br1222   1.920       .  S
C1216      C1217   1.404       .  A
C1216      H1221   1.083       .  S
C1217      C1218   1.413       .  A
C1218     Br1219   1.922       .  S
C1223      C1224   1.406       .  A
C1223      C1228   1.398       .  A
C1223      H1230   1.084       .  S
C1224      C1225   1.418       .  A
C1225      C1226   1.398       .  A
C1225     Br1232   1.923   1_545  S
C1226      C1227   1.401       .  A
C1226      H1231   1.085   1_545  S
C1227      C1228   1.412       .  A
C1228     Br1229   1.921       .  S
C1233      C1234   1.404       .  A
C1233      C1238   1.397       .  A
C1233      H1240   1.084       .  S
C1234      C1235   1.420       .  A
C1235      C1236   1.403       .  A
C1235     Br1242   1.922       .  S
C1236      C1237   1.401       .  A
C1236      H1241   1.084       .  S
C1237      C1238   1.415       .  A
C1238     Br1239   1.925       .  S
C1243      C1244   1.405       .  A
C1243      C1248   1.403       .  A
C1243      H1250   1.083       .  S
C1244      C1245   1.412       .  A
C1245      C1246   1.398       .  A
C1245     Br1252   1.916       .  S
C1246      C1247   1.402       .  A
C1246      H1251   1.084       .  S
C1247      C1248   1.413       .  A
C1248     Br1249   1.919       .  S
C1253      C1254   1.399       .  A
C1253      C1258   1.395       .  A
C1253      H1260   1.084       .  S
C1254      C1255   1.410   1_455  A
C1255      C1256   1.405       .  A
C1255     Br1262   1.919       .  S
C1256      C1257   1.404   1_655  A
C1256      H1261   1.083       .  S
C1257      C1258   1.410       .  A
C1258     Br1259   1.919       .  S
C1263      C1264   1.406       .  A
C1263      C1268   1.402       .  A
C1263      H1270   1.083       .  S
C1264      C1265   1.417       .  A
C1265      C1266   1.398       .  A
C1265     Br1272   1.924       .  S
C1266      C1267   1.404       .  A
C1266      H1271   1.083       .  S
C1267      C1268   1.415       .  A
C1268     Br1269   1.921       .  S
C1273      C1274   1.406       .  A
C1273      C1278   1.407       .  A
C1273      H1280   1.083       .  S
C1274      C1275   1.412       .  A
C1275      C1276   1.394       .  A
C1275     Br1282   1.924       .  S
C1276      C1277   1.404       .  A
C1276      H1281   1.083       .  S
C1277      C1278   1.415       .  A
C1278     Br1279   1.920       .  S
C1283      C1284   1.405       .  A
C1283      C1288   1.400       .  A
C1283      H1290   1.084       .  S
C1284      C1285   1.411       .  A
C1285      C1286   1.391       .  A
C1285     Br1292   1.923       .  S
C1286      C1287   1.401       .  A
C1286      H1291   1.083       .  S
C1287      C1288   1.410       .  A
C1288     Br1289   1.919       .  S
C1293      C1294   1.407       .  A
C1293      C1298   1.406       .  A
C1293      H1300   1.083       .  S
C1294      C1295   1.415       .  A
C1295      C1296   1.390       .  A
C1295     Br1302   1.925       .  S
C1296      C1297   1.401       .  A
C1296      H1301   1.084       .  S
C1297      C1298   1.411       .  A
C1298     Br1299   1.918       .  S
C1303      C1304   1.404       .  A
C1303      C1308   1.402       .  A
C1303      H1310   1.084       .  S
C1304      C1305   1.411       .  A
C1305      C1306   1.398       .  A
C1305     Br1312   1.921       .  S
C1306      C1307   1.403       .  A
C1306      H1311   1.083       .  S
C1307      C1308   1.414       .  A
C1308     Br1309   1.921       .  S
C1313      C1314   1.401       .  A
C1313      C1318   1.398       .  A
C1313      H1320   1.084       .  S
C1314      C1315   1.402       .  A
C1315      C1316   1.401       .  A
C1315     Br1322   1.917   1_545  S
C1316      C1317   1.410       .  A
C1316      H1321   1.083       .  S
C1317      C1318   1.413       .  A
C1318     Br1319   1.921       .  S
C1323      C1324   1.405       .  A
C1323      C1328   1.395       .  A
C1323      H1330   1.083       .  S
C1324      C1325   1.412       .  A
C1325      C1326   1.405       .  A
C1325     Br1332   1.919       .  S
C1326      C1327   1.408       .  A
C1326      H1331   1.083       .  S
C1327      C1328   1.412       .  A
C1328     Br1329   1.923       .  S
C1333      C1334   1.405       .  A
C1333      C1338   1.397       .  A
C1333      H1340   1.083       .  S
C1334      C1335   1.413       .  A
C1335      C1336   1.400       .  A
C1335     Br1342   1.920       .  S
C1336      C1337   1.404       .  A
C1336      H1341   1.083       .  S
C1337      C1338   1.411       .  A
C1338     Br1339   1.922       .  S
C1343      C1344   1.407       .  A
C1343      C1348   1.407       .  A
C1343      H1350   1.084       .  S
C1344      C1345   1.409       .  A
C1345      C1346   1.390       .  A
C1345     Br1352   1.923       .  S
C1346      C1347   1.403       .  A
C1346      H1351   1.084       .  S
C1347      C1348   1.412       .  A
C1348     Br1349   1.918       .  S
C1353      C1354   1.404       .  A
C1353      C1358   1.393       .  A
C1353      H1360   1.084       .  S
C1354      C1355   1.415       .  A
C1355      C1356   1.402       .  A
C1355     Br1362   1.920       .  S
C1356      C1357   1.406       .  A
C1356      H1361   1.084       .  S
C1357      C1358   1.416       .  A
C1358     Br1359   1.925       .  S
C1363      C1364   1.406       .  A
C1363      C1368   1.400       .  A
C1363      H1370   1.083       .  S
C1364      C1365   1.413       .  A
C1365      C1366   1.392       .  A
C1365     Br1372   1.925       .  S
C1366      C1367   1.403       .  A
C1366      H1371   1.083       .  S
C1367      C1368   1.413       .  A
C1368     Br1369   1.921       .  S
C1373      C1374   1.410       .  A
C1373      C1378   1.410       .  A
C1373      H1380   1.083       .  S
C1374      C1375   1.417       .  A
C1375      C1376   1.389       .  A
C1375     Br1382   1.929       .  S
C1376      C1377   1.404       .  A
C1376      H1381   1.084       .  S
C1377      C1378   1.415       .  A
C1378     Br1379   1.918   1_565  S
C1383      C1384   1.405       .  A
C1383      C1388   1.406       .  A
C1383      H1390   1.084       .  S
C1384      C1385   1.409       .  A
C1385      C1386   1.391       .  A
C1385     Br1392   1.923       .  S
C1386      C1387   1.400       .  A
C1386      H1391   1.084       .  S
C1387      C1388   1.411       .  A
C1388     Br1389   1.917       .  S
C1393      C1394   1.404       .  A
C1393      C1398   1.400       .  A
C1393      H1400   1.084       .  S
C1394      C1395   1.408   1_545  A
C1395      C1396   1.396   1_565  A
C1395     Br1402   1.922       .  S
C1396      C1397   1.408       .  A
C1396      H1401   1.083       .  S
C1397      C1398   1.415       .  A
C1398     Br1399   1.922       .  S
C1403      C1404   1.404       .  A
C1403      C1408   1.398       .  A
C1403      H1410   1.084       .  S
C1404      C1405   1.409       .  A
C1405      C1406   1.391       .  A
C1405     Br1412   1.923       .  S
C1406      C1407   1.402       .  A
C1406      H1411   1.084       .  S
C1407      C1408   1.409       .  A
C1408     Br1409   1.920       .  S
C1413      C1414   1.405       .  A
C1413      C1418   1.406       .  A
C1413      H1420   1.084       .  S
C1414      C1415   1.407       .  A
C1415      C1416   1.389       .  A
C1415     Br1422   1.924       .  S
C1416      C1417   1.404       .  A
C1416      H1421   1.084       .  S
C1417      C1418   1.413       .  A
C1418     Br1419   1.918   1_565  S
C1423      C1424   1.403       .  A
C1423      C1428   1.403       .  A
C1423      H1430   1.083       .  S
C1424      C1425   1.413       .  A
C1425      C1426   1.392       .  A
C1425     Br1432   1.924       .  S
C1426      C1427   1.399       .  A
C1426      H1431   1.084       .  S
C1427      C1428   1.411       .  A
C1428     Br1429   1.918       .  S
C1433      C1434   1.403       .  A
C1433      C1438   1.392       .  A
C1433      H1440   1.083   1_455  S
C1434      C1435   1.413       .  A
C1435      C1436   1.400       .  A
C1435     Br1442   1.921       .  S
C1436      C1437   1.404       .  A
C1436      H1441   1.083       .  S
C1437      C1438   1.411       .  A
C1438     Br1439   1.923   1_455  S
C1443      C1444   1.404       .  A
C1443      C1448   1.394       .  A
C1443      H1450   1.083       .  S
C1444      C1445   1.414       .  A
C1445      C1446   1.404       .  A
C1445     Br1452   1.920       .  S
C1446      C1447   1.407       .  A
C1446      H1451   1.083       .  S
C1447      C1448   1.417       .  A
C1448     Br1449   1.926       .  S
C1453      C1454   1.404       .  A
C1453      C1458   1.397       .  A
C1453      H1460   1.083       .  S
C1454      C1455   1.414       .  A
C1455      C1456   1.400       .  A
C1455     Br1462   1.922       .  S
C1456      C1457   1.404       .  A
C1456      H1461   1.083       .  S
C1457      C1458   1.414       .  A
C1458     Br1459   1.923       .  S
C1463      C1464   1.402       .  A
C1463      C1468   1.389       .  A
C1463      H1470   1.084       .  S
C1464      C1465   1.413   1_455  A
C1465      C1466   1.406       .  A
C1465     Br1472   1.917       .  S
C1466      C1467   1.406   1_655  A
C1466      H1471   1.083       .  S
C1467      C1468   1.412       .  A
C1468     Br1469   1.926       .  S
C1473      C1474   1.405   1_655  A
C1473      C1478   1.404       .  A
C1473      H1480   1.083       .  S
C1474      C1475   1.412       .  A
C1475      C1476   1.391       .  A
C1475     Br1482   1.925       .  S
C1476      C1477   1.403       .  A
C1476      H1481   1.083       .  S
C1477      C1478   1.415   1_455  A
C1478     Br1479   1.920       .  S
C1483      C1484   1.403       .  A
C1483      C1488   1.395       .  A
C1483      H1490   1.084       .  S
C1484      C1485   1.416       .  A
C1485      C1486   1.403       .  A
C1485     Br1492   1.920       .  S
C1486      C1487   1.401       .  A
C1486      H1491   1.084       .  S
C1487      C1488   1.409       .  A
C1488     Br1489   1.922       .  S
C1493      C1494   1.405       .  A
C1493      C1498   1.402       .  A
C1493      H1500   1.084       .  S
C1494      C1495   1.412       .  A
C1495      C1496   1.396       .  A
C1495     Br1502   1.923       .  S
C1496      C1497   1.405       .  A
C1496      H1501   1.084       .  S
C1497      C1498   1.414       .  A
C1498     Br1499   1.920       .  S
C1503      C1504   1.412       .  A
C1503      C1508   1.404       .  A
C1503      H1510   1.084   1_565  S
C1504      C1505   1.416       .  A
C1505      C1506   1.396       .  A
C1505     Br1512   1.924       .  S
C1506      C1507   1.404       .  A
C1506      H1511   1.085       .  S
C1507      C1508   1.406       .  A
C1508     Br1509   1.917   1_565  S
C1513      C1514   1.403       .  A
C1513      C1518   1.398       .  A
C1513      H1520   1.084       .  S
C1514      C1515   1.408       .  A
C1515      C1516   1.401       .  A
C1515     Br1522   1.920       .  S
C1516      C1517   1.409       .  A
C1516      H1521   1.083       .  S
C1517      C1518   1.414       .  A
C1518     Br1519   1.921       .  S
C1523      C1524   1.401       .  A
C1523      C1528   1.395       .  A
C1523      H1530   1.083       .  S
C1524      C1525   1.413       .  A
C1525      C1526   1.404       .  A
C1525     Br1532   1.920       .  S
C1526      C1527   1.407       .  A
C1526      H1531   1.083       .  S
C1527      C1528   1.418       .  A
C1528     Br1529   1.925       .  S
C1533      C1534   1.403       .  A
C1533      C1538   1.397       .  A
C1533      H1540   1.083       .  S
C1534      C1535   1.413       .  A
C1535      C1536   1.403       .  A
C1535     Br1542   1.921       .  S
C1536      C1537   1.407       .  A
C1536      H1541   1.083       .  S
C1537      C1538   1.416       .  A
C1538     Br1539   1.923       .  S
C1543      C1544   1.408   1_655  A
C1543      C1548   1.402       .  A
C1543      H1550   1.084       .  S
C1544      C1545   1.413       .  A
C1545      C1546   1.396       .  A
C1545     Br1552   1.923       .  S
C1546      C1547   1.407       .  A
C1546      H1551   1.084       .  S
C1547      C1548   1.411   1_455  A
C1548     Br1549   1.919       .  S
C1553      C1554   1.404       .  A
C1553      C1558   1.392       .  A
C1553      H1560   1.084       .  S
C1554      C1555   1.420   1_655  A
C1555      C1556   1.407       .  A
C1555     Br1562   1.920       .  S
C1556      C1557   1.401   1_455  A
C1556      H1561   1.084       .  S
C1557      C1558   1.408       .  A
C1558     Br1559   1.922       .  S
C1563      C1564   1.406       .  A
C1563      C1568   1.402       .  A
C1563      H1570   1.083       .  S
C1564      C1565   1.416       .  A
C1565      C1566   1.397       .  A
C1565     Br1572   1.924       .  S
C1566      C1567   1.403       .  A
C1566      H1571   1.083       .  S
C1567      C1568   1.413       .  A
C1568     Br1569   1.921       .  S
C1573      C1574   1.408       .  A
C1573      C1578   1.404       .  A
C1573      H1580   1.084       .  S
C1574      C1575   1.412   1_565  A
C1575      C1576   1.397       .  A
C1575     Br1582   1.923       .  S
C1576      C1577   1.408   1_545  A
C1576      H1581   1.084       .  S
C1577      C1578   1.413       .  A
C1578     Br1579   1.919       .  S
C1583      C1584   1.413       .  A
C1583      C1588   1.405       .  A
C1583      H1590   1.083       .  S
C1584      C1585   1.416   1_655  A
C1585      C1586   1.392       .  A
C1585     Br1592   1.924       .  S
C1586      C1587   1.399   1_455  A
C1586      H1591   1.085       .  S
C1587      C1588   1.404       .  A
C1588     Br1589   1.917       .  S
C1593      C1594   1.404       .  A
C1593      C1598   1.398       .  A
C1593      H1600   1.084       .  S
C1594      C1595   1.417   1_655  A
C1595      C1596   1.403       .  A
C1595     Br1602   1.921       .  S
C1596      C1597   1.405   1_455  A
C1596      H1601   1.083       .  S
C1597      C1598   1.419       .  A
C1598     Br1599   1.926       .  S
