geometry optimzed in LAMMPS
_audit_creation_date              2020-11-30 
_audit_creation_method            'lammps2cif' 
_symmetry_space_group_name_H-M    'P1' 
_symmetry_Int_Tables_number       1 
_symmetry_cell_setting            triclinic 
loop_ 
_symmetry_equiv_pos_as_xyz 
  x,y,z 
_cell_length_a                    38.36908372465402 
_cell_length_b                    45.09560665155076 
_cell_length_c                    25.875353730790952 
_cell_angle_alpha                 90.00066154059945 
_cell_angle_beta                  89.8384688084287 
_cell_angle_gamma                 90.08363439806553 
loop_ 
_atom_site_label 
_atom_site_type_symbol 
_atom_site_fract_x 
_atom_site_fract_y 
_atom_site_fract_z 
_atom_site_charge 
N1          N  0.42688079  0.09065392  0.05535410    -0.26730
N2          N  0.41706603  0.06486995  0.07493772    -0.34580
C3          C  0.44031333  0.04404914  0.06066889     0.01610
C4          C  0.46593598  0.05743815  0.03075481     0.07640
C5          C  0.45632069  0.08692318  0.02803188    -0.05460
H6          H  0.43957424  0.02116160  0.07317522     0.08310
H7          H  0.46988476  0.10472656  0.00870243     0.09510
Cu8        Cu  0.37430638  0.06000669  0.12381607     0.44170
Cu9        Cu  0.40421178  0.13112442  0.07241961     0.41990
Cu10       Cu  0.34510395  0.13072953  0.17743725     0.43880
N11         N  0.33161505  0.06456374  0.17288506    -0.34110
N12         N  0.32209846  0.09018127  0.19335060    -0.28370
C13         C  0.29261982  0.08631492  0.22055492    -0.04470
C14         C  0.28265161  0.05693384  0.21676683     0.07750
C15         C  0.30812263  0.04372326  0.18643171     0.01540
H16         H  0.27924866  0.10396610  0.24051593     0.09200
H17         H  0.30859042  0.02097604  0.17315256     0.08110
N18         N  0.36409712  0.16962050  0.14543602    -0.35560
N19         N  0.38521893  0.16976708  0.10513403    -0.27740
C20         C  0.39220201  0.19799216  0.09188840    -0.02980
C21         C  0.37454571  0.21669079  0.12557775     0.05630
C22         C  0.35698143  0.19774982  0.15903636     0.03720
H23         H  0.40860154  0.20428955  0.05965997     0.08830
H24         H  0.34050402  0.20381770  0.19128762     0.07660
C25         C  0.49910839  0.04390583  0.01250721     0.01130
C26         C  0.49914353  0.01834795  0.48448120     0.01130
N27         N  0.17849494  0.09046876  0.18862967    -0.26730
N28         N  0.16775901  0.06451588  0.17094870    -0.34580
C29         C  0.19039774  0.04351802  0.18649281     0.01610
C30         C  0.21649357  0.05702500  0.21525878     0.07640
C31         C  0.20783877  0.08672941  0.21581441    -0.05460
H32         H  0.18888875  0.02037074  0.17571428     0.08310
H33         H  0.22194064  0.10469017  0.23365254     0.09510
Cu34       Cu  0.12431738  0.05969367  0.12331702     0.44170
Cu35       Cu  0.15700357  0.13110193  0.17075518     0.41990
Cu36       Cu  0.09244932  0.13125171  0.07530225     0.43880
N37         N  0.08095911  0.06471157  0.07560873    -0.34110
N38         N  0.07056177  0.09067188  0.05762010    -0.28370
C39         C  0.04117239  0.08702210  0.03045912    -0.04470
C40         C  0.03212112  0.05738438  0.03141917     0.07750
C41         C  0.05804426  0.04381370  0.06032832     0.01540
H42         H  0.02730005  0.10499861  0.01237407     0.09200
H43         H  0.05924276  0.02070226  0.07140094     0.08270
N44         N  0.11280586  0.17003548  0.10503582    -0.35560
N45         N  0.13676105  0.16996741  0.14144964    -0.27740
C46         C  0.14480098  0.19809150  0.15381950    -0.02980
C47         C  0.12471891  0.21689253  0.12374052     0.05630
C48         C  0.10469307  0.19821047  0.09325307     0.03720
H49         H  0.16422473  0.20427968  0.18204800     0.08830
H50         H  0.08519220  0.20451036  0.06524929     0.07660
N51         N  0.32030155  0.97120655  0.30791095    -0.26730
N52         N  0.33066585  0.99717655  0.32599611    -0.34580
C53         C  0.30775146  0.01801740  0.31075365     0.01610
C54         C  0.28186098  0.00439611  0.28176224     0.07640
C55         C  0.29092962  0.97478777  0.28071032    -0.05460
H56         H  0.30894999  0.04112735  0.32185538     0.08310
H57         H  0.27709966  0.95679008  0.26251310     0.09510
Cu58       Cu  0.37396983  0.00226024  0.37377532     0.44170
Cu59       Cu  0.34217607  0.93072529  0.32572041     0.41990
Cu60       Cu  0.40513871  0.93109104  0.42374766     0.43880
N61         N  0.41720114  0.99748757  0.42176057    -0.34110
N62         N  0.42729751  0.97164738  0.44061684    -0.28370
C63         C  0.45669922  0.97534930  0.46772377    -0.04470
C64         C  0.46608435  0.00488984  0.46574919     0.07750
C65         C  0.44033091  0.01836436  0.43638779     0.01540
H66         H  0.47035249  0.95747001  0.48646473     0.09200
H67         H  0.43938189  0.04136941  0.42460901     0.08270
N68         N  0.38539475  0.89220627  0.39362837    -0.35560
N69         N  0.36200505  0.89206613  0.35639525    -0.27740
C70         C  0.35416598  0.86387180  0.34422903    -0.02980
C71         C  0.37385627  0.84529991  0.37521963     0.05630
C72         C  0.39341906  0.86410657  0.40604671     0.03720
H73         H  0.33584945  0.85745512  0.31455547     0.08830
H74         H  0.41181618  0.85791255  0.43572401     0.07660
C75         C  0.24930678  0.04341895  0.23448774     0.01130
C76         C  0.24897505  0.01786390  0.26252144     0.01130
N77         N  0.17661300  0.97098195  0.30496115    -0.26730
N78         N  0.16676043  0.99674843  0.32449568    -0.34580
C79         C  0.19001750  0.01763471  0.31025834     0.01610
C80         C  0.21568421  0.00431234  0.28042390     0.07640
C81         C  0.20608716  0.97479637  0.27772447    -0.05460
H82         H  0.18926982  0.04051866  0.32277387     0.08310
H83         H  0.21969605  0.95702477  0.25846955     0.09510
Cu84       Cu  0.12392269  0.00154966  0.37326029     0.44170
Cu85       Cu  0.15388550  0.93040032  0.32169961     0.41990
Cu86       Cu  0.09340614  0.93058895  0.42478939     0.43880
N87         N  0.08104967  0.99695802  0.42204448    -0.34110
N88         N  0.07096786  0.97121503  0.44150059    -0.28370
C89         C  0.04155793  0.97511812  0.46880481    -0.04470
C90         C  0.03225052  0.00468144  0.46628045     0.07750
C91         C  0.05801264  0.01793255  0.43643159     0.01540
H92         H  0.02781457  0.95737625  0.48801960     0.09200
H93         H  0.05898236  0.04083505  0.42404155     0.08270
N94         N  0.11284908  0.89171744  0.39347552    -0.35560
N95         N  0.13435147  0.89163102  0.35352511    -0.27740
C96         C  0.14149128  0.86340287  0.34041607    -0.02980
C97         C  0.12366702  0.84495424  0.37400324     0.05630
C98         C  0.10579873  0.86355473  0.40719673     0.03720
H99         H  0.15869243  0.85682595  0.30928516     0.08830
H100        H  0.08871277  0.85712075  0.43858366     0.07660
N101        N  0.42789092  0.59108465  0.44294339    -0.26730
N102        N  0.41754391  0.56512285  0.42479928    -0.34580
C103        C  0.44047625  0.54428177  0.43998510     0.01610
C104        C  0.46636108  0.55789402  0.46899874     0.07640
C105        C  0.45726688  0.58749607  0.47013203    -0.05460
H106        H  0.43929962  0.52118146  0.42881749     0.08310
H107        H  0.47108871  0.60548680  0.48836360     0.09510
Cu108      Cu  0.37424760  0.56005468  0.37699900     0.44170
Cu109      Cu  0.40602088  0.63157723  0.42517037     0.41990
Cu110      Cu  0.34305887  0.63123846  0.32714363     0.43880
N111        N  0.33100903  0.56484392  0.32903313    -0.34110
N112        N  0.32089521  0.59069342  0.31023783    -0.28370
C113        C  0.29149714  0.58699960  0.28311952    -0.04470
C114        C  0.28213758  0.55745188  0.28501026     0.07750
C115        C  0.30789713  0.54396717  0.31434753     0.01540
H116        H  0.27783558  0.60488683  0.26441507     0.09200
H117        H  0.30886809  0.52095136  0.32605811     0.08270
N118        N  0.36283903  0.67011228  0.35723594    -0.35560
N119        N  0.38622856  0.67024765  0.39446930    -0.27740
C120        C  0.39408978  0.69844182  0.40661107    -0.02980
C121        C  0.37441252  0.71701630  0.37560468     0.05630
C122        C  0.35483697  0.69821219  0.34479294     0.03720
H123        H  0.41240869  0.70485728  0.43628219     0.08830
H124        H  0.33644247  0.70440747  0.31511285     0.07660
N125        N  0.42635654  0.47207407  0.05770684    -0.26730
N126        N  0.41675217  0.49772874  0.07793343    -0.34580
C127        C  0.44018208  0.51858235  0.06420962     0.01610
C128        C  0.46570434  0.50533997  0.03400484     0.07640
C129        C  0.45583496  0.47592301  0.03049888    -0.05460
H130        H  0.43963755  0.54136750  0.07728331     0.08310
H131        H  0.46926782  0.45823738  0.01072812     0.09510
Cu132      Cu  0.37403372  0.50230959  0.12694299     0.44170
Cu133      Cu  0.40343319  0.43153508  0.07389375     0.41990
Cu134      Cu  0.34432971  0.43123758  0.17891637     0.43880
N135        N  0.33130178  0.49746838  0.17588302    -0.34110
N136        N  0.32157710  0.47171903  0.19570777    -0.28370
C137        C  0.29213725  0.47546603  0.22302753    -0.04470
C138        C  0.28242029  0.50491735  0.22002032     0.07750
C139        C  0.30799044  0.51827678  0.18997455     0.01540
H140        H  0.27863810  0.45769499  0.24255117     0.09200
H141        H  0.30865086  0.54112847  0.17726219     0.08270
N142        N  0.36335240  0.39256013  0.14633803    -0.35560
N143        N  0.38447268  0.39267798  0.10603406    -0.27740
C144        C  0.39159617  0.36454176  0.09249569    -0.02980
C145        C  0.37404102  0.34562195  0.12599708     0.05630
C146        C  0.35637797  0.36434178  0.15964680     0.03720
H147        H  0.40806564  0.35845501  0.06024632     0.08830
H148        H  0.33997271  0.35806310  0.19187986     0.07660
N149        N  0.17719856  0.59109278  0.30890425    -0.26730
N150        N  0.16713884  0.56535797  0.32842095    -0.34580
C151        C  0.19021014  0.54439062  0.31412255     0.01610
C152        C  0.21597264  0.55763666  0.28427069     0.07640
C153        C  0.20662962  0.58718940  0.28164704    -0.05460
H154        H  0.18926444  0.52149956  0.32658034     0.08310
H155        H  0.22036660  0.60492408  0.26239977     0.09510
Cu156      Cu  0.12425807  0.56076634  0.37719073     0.44170
Cu157      Cu  0.15470248  0.63171831  0.32549081     0.41990
Cu158      Cu  0.09423245  0.63192231  0.42859540     0.43880
N159        N  0.08142990  0.56556707  0.42597301    -0.34110
N160        N  0.07155856  0.59134101  0.44545375    -0.28370
C161        C  0.04210536  0.58752686  0.47273748    -0.04470
C162        C  0.03254041  0.55800103  0.47012972     0.07750
C163        C  0.05820491  0.54467411  0.44029435     0.01540
H164        H  0.02849247  0.60530501  0.49196549     0.09200
H165        H  0.05897388  0.52177951  0.42784090     0.08270
N166        N  0.11369990  0.67068477  0.39667596    -0.35560
N167        N  0.13519718  0.67059551  0.35671946    -0.27740
C168        C  0.14221053  0.69875851  0.34295467    -0.02980
C169        C  0.12432112  0.71735971  0.37612464     0.05630
C170        C  0.10652684  0.69891214  0.40974570     0.03720
H171        H  0.15929574  0.70519288  0.31156719     0.08830
H172        H  0.08933271  0.70548863  0.44088550     0.07660
C173        C  0.49928080  0.54443593  0.48813294     0.01130
C174        C  0.49900749  0.51887603  0.01615397     0.01130
C175        C  0.24911166  0.54398351  0.26617213     0.01130
C176        C  0.24920528  0.51842880  0.23813748     0.01130
N177        N  0.07001699  0.47187289  0.06149433    -0.26730
N178        N  0.08063386  0.49779752  0.07946454    -0.34580
C179        C  0.05790106  0.51877763  0.06415356     0.01610
C180        C  0.03186696  0.50529135  0.03524541     0.07640
C181        C  0.04065796  0.47561900  0.03434092    -0.05460
H182        H  0.05930943  0.54189204  0.07517323     0.08310
H183        H  0.02664332  0.45768552  0.01626593     0.09510
Cu184      Cu  0.12405245  0.50262205  0.12714347     0.44170
Cu185      Cu  0.09167903  0.43123637  0.07895711     0.41990
Cu186      Cu  0.15622402  0.43104181  0.17442430     0.43880
N187        N  0.16743196  0.49760583  0.17480804    -0.34110
N188        N  0.17794404  0.47161716  0.19251442    -0.28370
C189        C  0.20731797  0.47525940  0.21970759    -0.04470
C190        C  0.21623779  0.50492891  0.21908894     0.07750
C191        C  0.19025553  0.51852081  0.19031749     0.01540
H192        H  0.22127348  0.45725534  0.23756209     0.09200
H193        H  0.18896014  0.54166502  0.17948044     0.08270
N194        N  0.13600634  0.39227803  0.14444430    -0.35560
N195        N  0.11205491  0.39235285  0.10802510    -0.27740
C196        C  0.10407705  0.36422788  0.09556159    -0.02980
C197        C  0.12419408  0.34542514  0.12559131     0.05630
C198        C  0.14417896  0.36410501  0.15613664     0.03720
H199        H  0.08465138  0.35803790  0.06733710     0.08830
H200        H  0.16367274  0.35780726  0.18415262     0.07660
C201        C  0.14361491  0.79698186  0.41138127     0.24160
C202        C  0.12384100  0.81234062  0.37452847    -0.23950
C203        C  0.10421197  0.79638224  0.33821986     0.19070
C204        C  0.10436229  0.76533191  0.33875251     0.24100
C205        C  0.12414108  0.74997333  0.37559996    -0.23890
C206        C  0.14376501  0.76593194  0.41191419     0.19000
F207        F  0.16342868  0.75139700  0.44730794    -0.13850
F208        F  0.16313021  0.81210140  0.44627314    -0.16210
F209        F  0.08484127  0.75021206  0.30386817    -0.16220
F210        F  0.08454244  0.81091757  0.30283384    -0.13850
C211        C  0.40511793  0.79680356  0.38397449     0.24160
C212        C  0.37400117  0.81248250  0.37531455    -0.23950
C213        C  0.34302310  0.79651592  0.36674168     0.19070
C214        C  0.34315684  0.76551300  0.36683528     0.24100
C215        C  0.37427287  0.74983371  0.37549911    -0.23890
C216        C  0.40525168  0.76579994  0.38406810     0.19000
F217        F  0.43598944  0.75145411  0.39080240    -0.13850
F218        F  0.43573307  0.81142845  0.39061216    -0.16210
F219        F  0.31254092  0.75088940  0.36019653    -0.16220
F220        F  0.31228455  0.81086044  0.36000637    -0.13850
C221        C  0.13087356  0.26546450  0.17027575     0.24160
C222        C  0.12459769  0.24977911  0.12420733    -0.23950
C223        C  0.11818971  0.26584228  0.07859709     0.19070
C224        C  0.11806024  0.29685374  0.07904324     0.24100
C225        C  0.12433305  0.31253858  0.12511256    -0.23890
C226        C  0.13074372  0.29647468  0.17072207     0.19000
F227        F  0.13572963  0.31069693  0.21633293    -0.13850
F228        F  0.13597418  0.25085810  0.21547513    -0.16210
F229        F  0.11295570  0.31146300  0.03384792    -0.16220
F230        F  0.11319895  0.25161666  0.03299080    -0.13850
C231        C  0.34497172  0.29653861  0.14352820     0.24160
C232        C  0.37417161  0.31262378  0.12590321    -0.23950
C233        C  0.40349974  0.29681169  0.10818947     0.19070
C234        C  0.40362212  0.26577466  0.10809620     0.24100
C235        C  0.37442059  0.24968898  0.12571426    -0.23890
C236        C  0.34509402  0.26550065  0.14343471     0.19000
F237        F  0.31588788  0.25103909  0.15915606    -0.13850
F238        F  0.31565496  0.31073193  0.15934079    -0.16210
F239        F  0.43293917  0.25158262  0.09228046    -0.16220
F240        F  0.43270595  0.31127215  0.09246446    -0.13850
N241        N  0.42688079  0.09065392  0.55535411    -0.26730
N242        N  0.41706603  0.06486995  0.57493773    -0.34580
C243        C  0.44031333  0.04404914  0.56066889     0.01610
C244        C  0.46593598  0.05743815  0.53075481     0.07640
C245        C  0.45632069  0.08692318  0.52803189    -0.05460
H246        H  0.43957424  0.02116160  0.57317523     0.08310
H247        H  0.46988477  0.10472657  0.50870244     0.09510
Cu248      Cu  0.37430638  0.06000670  0.62381607     0.44170
Cu249      Cu  0.40421178  0.13112442  0.57241962     0.41990
Cu250      Cu  0.34510395  0.13072954  0.67743726     0.43880
N251        N  0.33161505  0.06456375  0.67288506    -0.34110
N252        N  0.32209846  0.09018127  0.69335060    -0.28370
C253        C  0.29261982  0.08631492  0.72055492    -0.04470
C254        C  0.28265160  0.05693384  0.71676683     0.07750
C255        C  0.30812264  0.04372326  0.68643171     0.01540
H256        H  0.27924866  0.10396610  0.74051593     0.09200
H257        H  0.30859042  0.02097604  0.67315256     0.08110
N258        N  0.36409713  0.16962050  0.64543603    -0.35560
N259        N  0.38521893  0.16976708  0.60513404    -0.27740
C260        C  0.39220202  0.19799216  0.59188841    -0.02980
C261        C  0.37454572  0.21669080  0.62557776     0.05630
C262        C  0.35698143  0.19774982  0.65903637     0.03720
H263        H  0.40860155  0.20428955  0.55965998     0.08830
H264        H  0.34050403  0.20381770  0.69128764     0.07660
C265        C  0.49910839  0.04390583  0.51250722     0.01130
C266        C  0.49914353  0.01834795  0.98448119     0.01130
N267        N  0.17849493  0.09046876  0.68862967    -0.26730
N268        N  0.16775901  0.06451588  0.67094870    -0.34580
C269        C  0.19039774  0.04351803  0.68649280     0.01610
C270        C  0.21649357  0.05702500  0.71525878     0.07640
C271        C  0.20783876  0.08672941  0.71581441    -0.05460
H272        H  0.18888875  0.02037074  0.67571428     0.08310
H273        H  0.22194063  0.10469017  0.73365255     0.09510
Cu274      Cu  0.12431738  0.05969367  0.62331702     0.44170
Cu275      Cu  0.15700357  0.13110193  0.67075519     0.41990
Cu276      Cu  0.09244932  0.13125171  0.57530225     0.43880
N277        N  0.08095911  0.06471157  0.57560872    -0.34110
N278        N  0.07056177  0.09067188  0.55762010    -0.28370
C279        C  0.04117239  0.08702210  0.53045912    -0.04470
C280        C  0.03212112  0.05738438  0.53141917     0.07750
C281        C  0.05804426  0.04381371  0.56032831     0.01540
H282        H  0.02730005  0.10499861  0.51237407     0.09200
H283        H  0.05924276  0.02070227  0.57140094     0.08270
N284        N  0.11280585  0.17003548  0.60503582    -0.35560
N285        N  0.13676104  0.16996741  0.64144965    -0.27740
C286        C  0.14480097  0.19809150  0.65381951    -0.02980
C287        C  0.12471890  0.21689253  0.62374053     0.05630
C288        C  0.10469306  0.19821047  0.59325308     0.03720
H289        H  0.16422472  0.20427968  0.68204802     0.08830
H290        H  0.08519220  0.20451036  0.56524929     0.07660
N291        N  0.32030154  0.97120655  0.80791096    -0.26730
N292        N  0.33066584  0.99717655  0.82599611    -0.34580
C293        C  0.30775146  0.01801740  0.81075365     0.01610
C294        C  0.28186098  0.00439611  0.78176224     0.07640
C295        C  0.29092961  0.97478777  0.78071033    -0.05460
H296        H  0.30894999  0.04112735  0.82185537     0.08310
H297        H  0.27709965  0.95679008  0.76251312     0.09510
Cu298      Cu  0.37396983  0.00226024  0.87377531     0.44170
Cu299      Cu  0.34217606  0.93072529  0.82572043     0.41990
Cu300      Cu  0.40513870  0.93109105  0.92374767     0.43880
N301        N  0.41720114  0.99748757  0.92176056    -0.34110
N302        N  0.42729751  0.97164739  0.94061685    -0.28370
C303        C  0.45669922  0.97534930  0.96772378    -0.04470
C304        C  0.46608435  0.00488984  0.96574919     0.07750
C305        C  0.44033091  0.01836436  0.93638778     0.01540
H306        H  0.47035248  0.95747001  0.98646474     0.09200
H307        H  0.43938189  0.04136941  0.92460900     0.08270
N308        N  0.38539474  0.89220627  0.89362840    -0.35560
N309        N  0.36200504  0.89206613  0.85639527    -0.27740
C310        C  0.35416596  0.86387179  0.84422906    -0.02980
C311        C  0.37385626  0.84529991  0.87521966     0.05630
C312        C  0.39341905  0.86410657  0.90604674     0.03720
H313        H  0.33584943  0.85745512  0.81455550     0.08830
H314        H  0.41181617  0.85791255  0.93572404     0.07660
C315        C  0.24930678  0.04341895  0.73448774     0.01130
C316        C  0.24897505  0.01786390  0.76252143     0.01130
N317        N  0.17661299  0.97098195  0.80496113    -0.26730
N318        N  0.16676043  0.99674843  0.82449567    -0.34580
C319        C  0.19001750  0.01763471  0.81025834     0.01610
C320        C  0.21568420  0.00431234  0.78042390     0.07640
C321        C  0.20608715  0.97479637  0.77772445    -0.05460
H322        H  0.18926982  0.04051866  0.82277388     0.08310
H323        H  0.21969604  0.95702477  0.75846953     0.09510
Cu324      Cu  0.12392269  0.00154966  0.87326029     0.44170
Cu325      Cu  0.15388549  0.93040032  0.82169959     0.41990
Cu326      Cu  0.09340614  0.93058895  0.92478939     0.43880
N327        N  0.08104968  0.99695801  0.92204449    -0.34110
N328        N  0.07096786  0.97121503  0.94150059    -0.28370
C329        C  0.04155793  0.97511812  0.96880481    -0.04470
C330        C  0.03225052  0.00468144  0.96628045     0.07750
C331        C  0.05801264  0.01793254  0.93643160     0.01540
H332        H  0.02781457  0.95737625  0.98801960     0.09200
H333        H  0.05898237  0.04083505  0.92404155     0.08270
N334        N  0.11284908  0.89171744  0.89347551    -0.35560
N335        N  0.13435147  0.89163102  0.85352509    -0.27740
C336        C  0.14149127  0.86340287  0.84041605    -0.02980
C337        C  0.12366702  0.84495424  0.87400323     0.05630
C338        C  0.10579874  0.86355473  0.90719673     0.03720
H339        H  0.15869242  0.85682595  0.80928512     0.08830
H340        H  0.08871279  0.85712075  0.93858366     0.07660
N341        N  0.42789092  0.59108464  0.94294340    -0.26730
N342        N  0.41754391  0.56512285  0.92479928    -0.34580
C343        C  0.44047625  0.54428177  0.93998510     0.01610
C344        C  0.46636108  0.55789401  0.96899874     0.07640
C345        C  0.45726688  0.58749607  0.97013204    -0.05460
H346        H  0.43929962  0.52118146  0.92881748     0.08310
H347        H  0.47108870  0.60548680  0.98836361     0.09510
Cu348      Cu  0.37424760  0.56005468  0.87699900     0.44170
Cu349      Cu  0.40602087  0.63157723  0.92517039     0.41990
Cu350      Cu  0.34305886  0.63123846  0.82714365     0.43880
N351        N  0.33100903  0.56484392  0.82903313    -0.34110
N352        N  0.32089520  0.59069343  0.81023784    -0.28370
C353        C  0.29149713  0.58699960  0.78311953    -0.04470
C354        C  0.28213758  0.55745188  0.78501027     0.07750
C355        C  0.30789713  0.54396717  0.81434753     0.01540
H356        H  0.27783558  0.60488684  0.76441509     0.09200
H357        H  0.30886809  0.52095136  0.82605810     0.08270
N358        N  0.36283902  0.67011228  0.85723596    -0.35560
N359        N  0.38622856  0.67024765  0.89446932    -0.27740
C360        C  0.39408977  0.69844182  0.90661109    -0.02980
C361        C  0.37441251  0.71701630  0.87560470     0.05630
C362        C  0.35483696  0.69821219  0.84479296     0.03720
H363        H  0.41240868  0.70485728  0.93628221     0.08830
H364        H  0.33644246  0.70440747  0.81511288     0.07660
N365        N  0.42635654  0.47207407  0.55770684    -0.26730
N366        N  0.41675217  0.49772874  0.57793343    -0.34580
C367        C  0.44018208  0.51858235  0.56420962     0.01610
C368        C  0.46570434  0.50533997  0.53400484     0.07640
C369        C  0.45583496  0.47592302  0.53049888    -0.05460
H370        H  0.43963756  0.54136750  0.57728331     0.08310
H371        H  0.46926782  0.45823739  0.51072812     0.09510
Cu372      Cu  0.37403373  0.50230959  0.62694299     0.44170
Cu373      Cu  0.40343319  0.43153509  0.57389375     0.41990
Cu374      Cu  0.34432972  0.43123759  0.67891638     0.43880
N375        N  0.33130178  0.49746838  0.67588302    -0.34110
N376        N  0.32157710  0.47171903  0.69570777    -0.28370
C377        C  0.29213725  0.47546603  0.72302754    -0.04470
C378        C  0.28242029  0.50491735  0.72002033     0.07750
C379        C  0.30799044  0.51827678  0.68997456     0.01540
H380        H  0.27863811  0.45769500  0.74255118     0.09200
H381        H  0.30865086  0.54112847  0.67726219     0.08270
N382        N  0.36335240  0.39256013  0.64633804    -0.35560
N383        N  0.38447268  0.39267798  0.60603407    -0.27740
C384        C  0.39159618  0.36454176  0.59249570    -0.02980
C385        C  0.37404102  0.34562196  0.62599709     0.05630
C386        C  0.35637798  0.36434178  0.65964681     0.03720
H387        H  0.40806564  0.35845501  0.56024633     0.08830
H388        H  0.33997272  0.35806310  0.69187987     0.07660
N389        N  0.17719856  0.59109278  0.80890424    -0.26730
N390        N  0.16713884  0.56535797  0.82842094    -0.34580
C391        C  0.19021014  0.54439062  0.81412255     0.01610
C392        C  0.21597264  0.55763666  0.78427069     0.07640
C393        C  0.20662961  0.58718940  0.78164703    -0.05460
H394        H  0.18926444  0.52149956  0.82658034     0.08310
H395        H  0.22036659  0.60492407  0.76239975     0.09510
Cu396      Cu  0.12425807  0.56076634  0.87719073     0.44170
Cu397      Cu  0.15470247  0.63171831  0.82549079     0.41990
Cu398      Cu  0.09423245  0.63192231  0.92859540     0.43880
N399        N  0.08142990  0.56556707  0.92597301    -0.34110
N400        N  0.07155856  0.59134101  0.94545374    -0.28370
C401        C  0.04210536  0.58752686  0.97273747    -0.04470
C402        C  0.03254041  0.55800103  0.97012972     0.07750
C403        C  0.05820491  0.54467411  0.94029435     0.01540
H404        H  0.02849247  0.60530501  0.99196548     0.09200
H405        H  0.05897389  0.52177951  0.92784090     0.08270
N406        N  0.11369990  0.67068477  0.89667595    -0.35560
N407        N  0.13519717  0.67059551  0.85671944    -0.27740
C408        C  0.14221052  0.69875851  0.84295465    -0.02980
C409        C  0.12432112  0.71735971  0.87612463     0.05630
C410        C  0.10652684  0.69891214  0.90974569     0.03720
H411        H  0.15929573  0.70519288  0.81156717     0.08830
H412        H  0.08933272  0.70548863  0.94088550     0.07660
C413        C  0.49928079  0.54443593  0.98813294     0.01130
C414        C  0.49900750  0.51887604  0.51615397     0.01130
C415        C  0.24911166  0.54398351  0.76617212     0.01130
C416        C  0.24920528  0.51842881  0.73813748     0.01130
N417        N  0.07001699  0.47187289  0.56149434    -0.26730
N418        N  0.08063386  0.49779752  0.57946454    -0.34580
C419        C  0.05790106  0.51877763  0.56415356     0.01610
C420        C  0.03186696  0.50529135  0.53524541     0.07640
C421        C  0.04065796  0.47561900  0.53434092    -0.05460
H422        H  0.05930943  0.54189204  0.57517323     0.08310
H423        H  0.02664332  0.45768552  0.51626594     0.09510
Cu424      Cu  0.12405245  0.50262205  0.62714347     0.44170
Cu425      Cu  0.09167902  0.43123637  0.57895712     0.41990
Cu426      Cu  0.15622402  0.43104181  0.67442431     0.43880
N427        N  0.16743196  0.49760583  0.67480803    -0.34110
N428        N  0.17794404  0.47161716  0.69251442    -0.28370
C429        C  0.20731798  0.47525940  0.71970759    -0.04470
C430        C  0.21623779  0.50492891  0.71908894     0.07750
C431        C  0.19025553  0.51852081  0.69031748     0.01540
H432        H  0.22127349  0.45725534  0.73756208     0.09200
H433        H  0.18896014  0.54166502  0.67948044     0.08270
N434        N  0.13600633  0.39227803  0.64444431    -0.35560
N435        N  0.11205491  0.39235285  0.60802511    -0.27740
C436        C  0.10407704  0.36422789  0.59556160    -0.02980
C437        C  0.12419407  0.34542514  0.62559132     0.05630
C438        C  0.14417896  0.36410501  0.65613665     0.03720
H439        H  0.08465138  0.35803790  0.56733711     0.08830
H440        H  0.16367274  0.35780726  0.68415262     0.07660
C441        C  0.14361489  0.79698186  0.91138128     0.24160
C442        C  0.12384100  0.81234062  0.87452846    -0.23950
C443        C  0.10421198  0.79638224  0.83821983     0.19070
C444        C  0.10436231  0.76533191  0.83875247     0.24100
C445        C  0.12414108  0.74997333  0.87559995    -0.23890
C446        C  0.14376499  0.76593194  0.91191419     0.19000
F447        F  0.16342865  0.75139700  0.94730796    -0.13850
F448        F  0.16313017  0.81210140  0.94627316    -0.16210
F449        F  0.08484129  0.75021206  0.80386812    -0.16220
F450        F  0.08454247  0.81091757  0.80283379    -0.13850
C451        C  0.40511792  0.79680357  0.88397451     0.24160
C452        C  0.37400115  0.81248250  0.87531458    -0.23950
C453        C  0.34302309  0.79651591  0.86674172     0.19070
C454        C  0.34315683  0.76551300  0.86683531     0.24100
C455        C  0.37427286  0.74983371  0.87549914    -0.23890
C456        C  0.40525167  0.76579994  0.88406813     0.19000
F457        F  0.43598943  0.75145411  0.89080242    -0.13850
F458        F  0.43573306  0.81142845  0.89061218    -0.16210
F459        F  0.31254092  0.75088940  0.86019657    -0.16220
F460        F  0.31228454  0.81086044  0.86000641    -0.13850
C461        C  0.13087355  0.26546450  0.67027576     0.24160
C462        C  0.12459768  0.24977911  0.62420734    -0.23950
C463        C  0.11818970  0.26584228  0.57859710     0.19070
C464        C  0.11806023  0.29685374  0.57904325     0.24100
C465        C  0.12433305  0.31253858  0.62511258    -0.23890
C466        C  0.13074372  0.29647469  0.67072208     0.19000
F467        F  0.13572962  0.31069693  0.71633294    -0.13850
F468        F  0.13597417  0.25085810  0.71547514    -0.16210
F469        F  0.11295570  0.31146300  0.53384793    -0.16220
F470        F  0.11319894  0.25161666  0.53299081    -0.13850
C471        C  0.34497173  0.29653862  0.64352822     0.24160
C472        C  0.37417161  0.31262379  0.62590322    -0.23950
C473        C  0.40349974  0.29681169  0.60818947     0.19070
C474        C  0.40362212  0.26577466  0.60809619     0.24100
C475        C  0.37442060  0.24968898  0.62571427    -0.23890
C476        C  0.34509402  0.26550065  0.64343473     0.19000
F477        F  0.31588789  0.25103909  0.65915610    -0.13850
F478        F  0.31565497  0.31073193  0.65934083    -0.16210
F479        F  0.43293916  0.25158262  0.59228044    -0.16220
F480        F  0.43270595  0.31127215  0.59246445    -0.13850
N481        N  0.92688079  0.09065392  0.05535411    -0.26730
N482        N  0.91706603  0.06486995  0.07493772    -0.34580
C483        C  0.94031333  0.04404914  0.06066889     0.01610
C484        C  0.96593598  0.05743815  0.03075481     0.07640
C485        C  0.95632069  0.08692318  0.02803189    -0.05460
H486        H  0.93957423  0.02116160  0.07317523     0.08310
H487        H  0.96988476  0.10472656  0.00870244     0.09510
Cu488      Cu  0.87430637  0.06000669  0.12381607     0.44170
Cu489      Cu  0.90421178  0.13112442  0.07241961     0.41990
Cu490      Cu  0.84510394  0.13072953  0.17743724     0.43880
N491        N  0.83161505  0.06456374  0.17288506    -0.34110
N492        N  0.82209845  0.09018127  0.19335060    -0.28370
C493        C  0.79261982  0.08631492  0.22055492    -0.04470
C494        C  0.78265160  0.05693384  0.21676683     0.07750
C495        C  0.80812263  0.04372326  0.18643171     0.01540
H496        H  0.77924866  0.10396610  0.24051592     0.09200
H497        H  0.80859042  0.02097604  0.17315256     0.08110
N498        N  0.86409712  0.16962050  0.14543602    -0.35560
N499        N  0.88521893  0.16976708  0.10513403    -0.27740
C500        C  0.89220202  0.19799216  0.09188841    -0.02980
C501        C  0.87454571  0.21669079  0.12557776     0.05630
C502        C  0.85698142  0.19774982  0.15903636     0.03720
H503        H  0.90860155  0.20428955  0.05965999     0.08830
H504        H  0.84050401  0.20381770  0.19128762     0.07660
C505        C  0.99910838  0.04390583  0.01250721     0.01130
C506        C  0.99914353  0.01834796  0.48448119     0.01130
N507        N  0.67849493  0.09046876  0.18862967    -0.26730
N508        N  0.66775901  0.06451588  0.17094870    -0.34580
C509        C  0.69039774  0.04351802  0.18649280     0.01610
C510        C  0.71649357  0.05702500  0.21525878     0.07640
C511        C  0.70783876  0.08672941  0.21581442    -0.05460
H512        H  0.68888875  0.02037074  0.17571427     0.08310
H513        H  0.72194063  0.10469016  0.23365255     0.09510
Cu514      Cu  0.62431738  0.05969367  0.12331702     0.44170
Cu515      Cu  0.65700357  0.13110193  0.17075518     0.41990
Cu516      Cu  0.59244933  0.13125171  0.07530224     0.43880
N517        N  0.58095911  0.06471157  0.07560872    -0.34110
N518        N  0.57056178  0.09067188  0.05762009    -0.28370
C519        C  0.54117239  0.08702210  0.03045912    -0.04470
C520        C  0.53212112  0.05738438  0.03141917     0.07750
C521        C  0.55804426  0.04381370  0.06032831     0.01540
H522        H  0.52730006  0.10499860  0.01237406     0.09200
H523        H  0.55924276  0.02070226  0.07140095     0.08270
N524        N  0.61280586  0.17003548  0.10503581    -0.35560
N525        N  0.63676105  0.16996741  0.14144964    -0.27740
C526        C  0.64480097  0.19809150  0.15381950    -0.02980
C527        C  0.62471891  0.21689253  0.12374052     0.05630
C528        C  0.60469307  0.19821047  0.09325307     0.03720
H529        H  0.66422472  0.20427968  0.18204801     0.08830
H530        H  0.58519220  0.20451036  0.06524928     0.07660
N531        N  0.82030154  0.97120654  0.30791096    -0.26730
N532        N  0.83066584  0.99717655  0.32599610    -0.34580
C533        C  0.80775145  0.01801740  0.31075364     0.01610
C534        C  0.78186097  0.00439610  0.28176224     0.07640
C535        C  0.79092960  0.97478776  0.28071033    -0.05460
H536        H  0.80894999  0.04112735  0.32185536     0.08310
H537        H  0.77709965  0.95679007  0.26251313     0.09510
Cu538      Cu  0.87396983  0.00226024  0.37377530     0.44170
Cu539      Cu  0.84217606  0.93072529  0.32572042     0.41990
Cu540      Cu  0.90513870  0.93109105  0.42374767     0.43880
N541        N  0.91720114  0.99748758  0.42176056    -0.34110
N542        N  0.92729750  0.97164739  0.44061685    -0.28370
C543        C  0.95669921  0.97534930  0.46772378    -0.04470
C544        C  0.96608435  0.00488984  0.46574919     0.07750
C545        C  0.94033091  0.01836437  0.43638777     0.01540
H546        H  0.97035247  0.95747002  0.48646475     0.09200
H547        H  0.93938189  0.04136941  0.42460899     0.08270
N548        N  0.88539475  0.89220627  0.39362838    -0.35560
N549        N  0.86200504  0.89206612  0.35639526    -0.27740
C550        C  0.85416597  0.86387179  0.34422905    -0.02980
C551        C  0.87385627  0.84529991  0.37521964     0.05630
C552        C  0.89341906  0.86410657  0.40604672     0.03720
H553        H  0.83584944  0.85745512  0.31455549     0.08830
H554        H  0.91181618  0.85791255  0.43572403     0.07660
C555        C  0.74930678  0.04341895  0.23448774     0.01130
C556        C  0.74897505  0.01786389  0.26252143     0.01130
N557        N  0.67661298  0.97098195  0.30496111    -0.26730
N558        N  0.66676042  0.99674843  0.32449566    -0.34580
C559        C  0.69001750  0.01763470  0.31025834     0.01610
C560        C  0.71568420  0.00431234  0.28042389     0.07640
C561        C  0.70608714  0.97479637  0.27772443    -0.05460
H562        H  0.68926982  0.04051866  0.32277388     0.08310
H563        H  0.71969603  0.95702477  0.25846951     0.09510
Cu564      Cu  0.62392269  0.00154966  0.37326029     0.44170
Cu565      Cu  0.65388547  0.93040032  0.32169956     0.41990
Cu566      Cu  0.59340617  0.93058895  0.42478944     0.43880
N567        N  0.58104968  0.99695801  0.42204450    -0.34110
N568        N  0.57096787  0.97121503  0.44150062    -0.28370
C569        C  0.54155795  0.97511812  0.46880484    -0.04470
C570        C  0.53225052  0.00468144  0.46628046     0.07750
C571        C  0.55801264  0.01793254  0.43643159     0.01540
H572        H  0.52781459  0.95737625  0.48801965     0.09200
H573        H  0.55898236  0.04083504  0.42404153     0.08270
N574        N  0.61284911  0.89171744  0.39347554    -0.35560
N575        N  0.63435146  0.89163102  0.35352509    -0.27740
C576        C  0.64149125  0.86340287  0.34041603    -0.02980
C577        C  0.62366703  0.84495424  0.37400325     0.05630
C578        C  0.60579877  0.86355473  0.40719678     0.03720
H579        H  0.65869237  0.85682595  0.30928508     0.08830
H580        H  0.58871285  0.85712075  0.43858374     0.07660
N581        N  0.92789091  0.59108464  0.44294340    -0.26730
N582        N  0.91754390  0.56512285  0.42479928    -0.34580
C583        C  0.94047625  0.54428177  0.43998509     0.01610
C584        C  0.96636107  0.55789401  0.46899874     0.07640
C585        C  0.95726687  0.58749606  0.47013205    -0.05460
H586        H  0.93929962  0.52118146  0.42881747     0.08310
H587        H  0.97108869  0.60548679  0.48836363     0.09510
Cu588      Cu  0.87424760  0.56005468  0.37699899     0.44170
Cu589      Cu  0.90602087  0.63157723  0.42517039     0.41990
Cu590      Cu  0.84305886  0.63123846  0.32714364     0.43880
N591        N  0.83100903  0.56484392  0.32903312    -0.34110
N592        N  0.82089520  0.59069342  0.31023783    -0.28370
C593        C  0.79149713  0.58699960  0.28311953    -0.04470
C594        C  0.78213758  0.55745188  0.28501026     0.07750
C595        C  0.80789712  0.54396717  0.31434752     0.01540
H596        H  0.77783557  0.60488684  0.26441509     0.09200
H597        H  0.80886809  0.52095136  0.32605809     0.08270
N598        N  0.86283902  0.67011228  0.35723595    -0.35560
N599        N  0.88622856  0.67024764  0.39446931    -0.27740
C600        C  0.89408978  0.69844182  0.40661108    -0.02980
C601        C  0.87441251  0.71701630  0.37560468     0.05630
C602        C  0.85483697  0.69821219  0.34479294     0.03720
H603        H  0.91240868  0.70485727  0.43628220     0.08830
H604        H  0.83644247  0.70440747  0.31511286     0.07660
N605        N  0.92635655  0.47207406  0.05770685    -0.26730
N606        N  0.91675218  0.49772873  0.07793343    -0.34580
C607        C  0.94018208  0.51858234  0.06420962     0.01610
C608        C  0.96570434  0.50533997  0.03400485     0.07640
C609        C  0.95583497  0.47592301  0.03049889    -0.05460
H610        H  0.93963755  0.54136750  0.07728330     0.08310
H611        H  0.96926782  0.45823738  0.01072813     0.09510
Cu612      Cu  0.87403372  0.50230959  0.12694299     0.44170
Cu613      Cu  0.90343320  0.43153508  0.07389377     0.41990
Cu614      Cu  0.84432971  0.43123758  0.17891637     0.43880
N615        N  0.83130178  0.49746837  0.17588302    -0.34110
N616        N  0.82157709  0.47171903  0.19570777    -0.28370
C617        C  0.79213724  0.47546603  0.22302753    -0.04470
C618        C  0.78242029  0.50491735  0.22002032     0.07750
C619        C  0.80799044  0.51827677  0.18997456     0.01540
H620        H  0.77863810  0.45769499  0.24255117     0.09200
H621        H  0.80865086  0.54112847  0.17726219     0.08270
N622        N  0.86335240  0.39256012  0.14633804    -0.35560
N623        N  0.88447268  0.39267798  0.10603408    -0.27740
C624        C  0.89159619  0.36454175  0.09249571    -0.02980
C625        C  0.87404102  0.34562195  0.12599709     0.05630
C626        C  0.85637797  0.36434177  0.15964680     0.03720
H627        H  0.90806566  0.35845501  0.06024635     0.08830
H628        H  0.83997270  0.35806309  0.19187985     0.07660
N629        N  0.67719855  0.59109277  0.30890422    -0.26730
N630        N  0.66713884  0.56535797  0.32842094    -0.34580
C631        C  0.69021014  0.54439062  0.31412255     0.01610
C632        C  0.71597264  0.55763666  0.28427068     0.07640
C633        C  0.70662961  0.58718940  0.28164701    -0.05460
H634        H  0.68926444  0.52149956  0.32658035     0.08310
H635        H  0.72036658  0.60492407  0.26239973     0.09510
Cu636      Cu  0.62425807  0.56076634  0.37719073     0.44170
Cu637      Cu  0.65470245  0.63171831  0.32549076     0.41990
Cu638      Cu  0.59423249  0.63192231  0.42859545     0.43880
N639        N  0.58142991  0.56556707  0.42597302    -0.34110
N640        N  0.57155858  0.59134101  0.44545377    -0.28370
C641        C  0.54210537  0.58752686  0.47273750    -0.04470
C642        C  0.53254042  0.55800103  0.47012972     0.07750
C643        C  0.55820492  0.54467411  0.44029435     0.01540
H644        H  0.52849250  0.60530500  0.49196553     0.09200
H645        H  0.55897388  0.52177951  0.42784088     0.08270
N646        N  0.61369992  0.67068476  0.39667598    -0.35560
N647        N  0.63519716  0.67059550  0.35671944    -0.27740
C648        C  0.64221050  0.69875851  0.34295463    -0.02980
C649        C  0.62432113  0.71735971  0.37612465     0.05630
C650        C  0.60652688  0.69891213  0.40974574     0.03720
H651        H  0.65929568  0.70519287  0.31156712     0.08830
H652        H  0.58933278  0.70548863  0.44088559     0.07660
C653        C  0.99928079  0.54443593  0.48813294     0.01130
C654        C  0.99900749  0.51887603  0.01615397     0.01130
C655        C  0.74911166  0.54398351  0.26617212     0.01130
C656        C  0.74920528  0.51842880  0.23813747     0.01130
N657        N  0.57001699  0.47187288  0.06149434    -0.26730
N658        N  0.58063386  0.49779752  0.07946454    -0.34580
C659        C  0.55790106  0.51877763  0.06415356     0.01610
C660        C  0.53186696  0.50529135  0.03524541     0.07640
C661        C  0.54065796  0.47561900  0.03434092    -0.05460
H662        H  0.55930943  0.54189204  0.07517324     0.08310
H663        H  0.52664332  0.45768552  0.01626594     0.09510
Cu664      Cu  0.62405245  0.50262204  0.12714347     0.44170
Cu665      Cu  0.59167902  0.43123637  0.07895711     0.41990
Cu666      Cu  0.65622402  0.43104181  0.17442431     0.43880
N667        N  0.66743196  0.49760583  0.17480803    -0.34110
N668        N  0.67794404  0.47161716  0.19251442    -0.28370
C669        C  0.70731797  0.47525940  0.21970759    -0.04470
C670        C  0.71623779  0.50492891  0.21908894     0.07750
C671        C  0.69025553  0.51852081  0.19031748     0.01540
H672        H  0.72127348  0.45725534  0.23756209     0.09200
H673        H  0.68896014  0.54166502  0.17948043     0.08270
N674        N  0.63600633  0.39227803  0.14444430    -0.35560
N675        N  0.61205491  0.39235285  0.10802510    -0.27740
C676        C  0.60407704  0.36422788  0.09556159    -0.02980
C677        C  0.62419408  0.34542514  0.12559131     0.05630
C678        C  0.64417896  0.36410501  0.15613665     0.03720
H679        H  0.58465138  0.35803790  0.06733710     0.08830
H680        H  0.66367274  0.35780726  0.18415262     0.07660
C681        C  0.64361482  0.79698186  0.41138139     0.24160
C682        C  0.62384101  0.81234062  0.37452848    -0.23950
C683        C  0.60421207  0.79638224  0.33821975     0.19070
C684        C  0.60436240  0.76533191  0.33875239     0.24100
C685        C  0.62414109  0.74997332  0.37559996    -0.23890
C686        C  0.64376492  0.76593194  0.41191431     0.19000
F687        F  0.66342850  0.75139700  0.44730817    -0.13850
F688        F  0.66313003  0.81210140  0.44627336    -0.16210
F689        F  0.58484146  0.75021206  0.30386795    -0.16220
F690        F  0.58454263  0.81091757  0.30283362    -0.13850
C691        C  0.90511793  0.79680356  0.38397450     0.24160
C692        C  0.87400116  0.81248250  0.37531457    -0.23950
C693        C  0.84302310  0.79651591  0.36674169     0.19070
C694        C  0.84315684  0.76551300  0.36683529     0.24100
C695        C  0.87427287  0.74983371  0.37549912    -0.23890
C696        C  0.90525167  0.76579994  0.38406811     0.19000
F697        F  0.93598944  0.75145411  0.39080241    -0.13850
F698        F  0.93573307  0.81142845  0.39061217    -0.16210
F699        F  0.81254092  0.75088940  0.36019654    -0.16220
F700        F  0.81228455  0.81086044  0.36000638    -0.13850
C701        C  0.63087355  0.26546450  0.17027575     0.24160
C702        C  0.62459769  0.24977911  0.12420733    -0.23950
C703        C  0.61818971  0.26584228  0.07859709     0.19070
C704        C  0.61806024  0.29685374  0.07904324     0.24100
C705        C  0.62433305  0.31253858  0.12511257    -0.23890
C706        C  0.63074371  0.29647468  0.17072207     0.19000
F707        F  0.63572961  0.31069693  0.21633293    -0.13850
F708        F  0.63597417  0.25085809  0.21547513    -0.16210
F709        F  0.61295571  0.31146300  0.03384792    -0.16220
F710        F  0.61319896  0.25161666  0.03299080    -0.13850
C711        C  0.84497172  0.29653861  0.14352818     0.24160
C712        C  0.87417161  0.31262378  0.12590322    -0.23950
C713        C  0.90349975  0.29681169  0.10818951     0.19070
C714        C  0.90362213  0.26577466  0.10809623     0.24100
C715        C  0.87442059  0.24968898  0.12571426    -0.23890
C716        C  0.84509401  0.26550064  0.14343468     0.19000
F717        F  0.81588786  0.25103909  0.15915601    -0.13850
F718        F  0.81565495  0.31073193  0.15934074    -0.16210
F719        F  0.93293918  0.25158262  0.09228052    -0.16220
F720        F  0.93270597  0.31127215  0.09246453    -0.13850
N721        N  0.92688079  0.09065392  0.55535411    -0.26730
N722        N  0.91706603  0.06486995  0.57493773    -0.34580
C723        C  0.94031333  0.04404914  0.56066889     0.01610
C724        C  0.96593598  0.05743815  0.53075481     0.07640
C725        C  0.95632069  0.08692318  0.52803189    -0.05460
H726        H  0.93957423  0.02116160  0.57317523     0.08310
H727        H  0.96988476  0.10472657  0.50870244     0.09510
Cu728      Cu  0.87430638  0.06000670  0.62381608     0.44170
Cu729      Cu  0.90421178  0.13112442  0.57241962     0.41990
Cu730      Cu  0.84510395  0.13072953  0.67743726     0.43880
N731        N  0.83161505  0.06456374  0.67288507    -0.34110
N732        N  0.82209845  0.09018127  0.69335061    -0.28370
C733        C  0.79261982  0.08631492  0.72055493    -0.04470
C734        C  0.78265160  0.05693384  0.71676683     0.07750
C735        C  0.80812264  0.04372326  0.68643172     0.01540
H736        H  0.77924866  0.10396610  0.74051594     0.09200
H737        H  0.80859042  0.02097604  0.67315257     0.08110
N738        N  0.86409712  0.16962050  0.64543603    -0.35560
N739        N  0.88521893  0.16976708  0.60513405    -0.27740
C740        C  0.89220202  0.19799216  0.59188841    -0.02980
C741        C  0.87454571  0.21669080  0.62557777     0.05630
C742        C  0.85698142  0.19774982  0.65903637     0.03720
H743        H  0.90860155  0.20428955  0.55965999     0.08830
H744        H  0.84050402  0.20381770  0.69128763     0.07660
C745        C  0.99910838  0.04390583  0.51250721     0.01130
C746        C  0.99914353  0.01834796  0.98448119     0.01130
N747        N  0.67849494  0.09046876  0.68862967    -0.26730
N748        N  0.66775901  0.06451588  0.67094870    -0.34580
C749        C  0.69039774  0.04351803  0.68649281     0.01610
C750        C  0.71649357  0.05702500  0.71525878     0.07640
C751        C  0.70783877  0.08672941  0.71581442    -0.05460
H752        H  0.68888875  0.02037074  0.67571428     0.08310
H753        H  0.72194064  0.10469017  0.73365255     0.09510
Cu754      Cu  0.62431739  0.05969368  0.62331702     0.44170
Cu755      Cu  0.65700357  0.13110194  0.67075518     0.41990
Cu756      Cu  0.59244933  0.13125171  0.57530223     0.43880
N757        N  0.58095911  0.06471157  0.57560872    -0.34110
N758        N  0.57056178  0.09067188  0.55762009    -0.28370
C759        C  0.54117240  0.08702210  0.53045911    -0.04470
C760        C  0.53212112  0.05738438  0.53141917     0.07750
C761        C  0.55804426  0.04381371  0.56032832     0.01540
H762        H  0.52730006  0.10499860  0.51237406     0.09200
H763        H  0.55924276  0.02070227  0.57140095     0.08270
N764        N  0.61280586  0.17003548  0.60503581    -0.35560
N765        N  0.63676105  0.16996741  0.64144964    -0.27740
C766        C  0.64480097  0.19809150  0.65381950    -0.02980
C767        C  0.62471891  0.21689253  0.62374052     0.05630
C768        C  0.60469307  0.19821047  0.59325307     0.03720
H769        H  0.66422472  0.20427968  0.68204801     0.08830
H770        H  0.58519221  0.20451036  0.56524928     0.07660
N771        N  0.82030153  0.97120654  0.80791098    -0.26730
N772        N  0.83066584  0.99717655  0.82599611    -0.34580
C773        C  0.80775145  0.01801740  0.81075364     0.01610
C774        C  0.78186097  0.00439610  0.78176225     0.07640
C775        C  0.79092959  0.97478776  0.78071035    -0.05460
H776        H  0.80894999  0.04112735  0.82185536     0.08310
H777        H  0.77709964  0.95679007  0.76251315     0.09510
Cu778      Cu  0.87396983  0.00226023  0.87377531     0.44170
Cu779      Cu  0.84217605  0.93072528  0.82572045     0.41990
Cu780      Cu  0.90513869  0.93109105  0.92374769     0.43880
N781        N  0.91720114  0.99748757  0.92176056    -0.34110
N782        N  0.92729750  0.97164739  0.94061686    -0.28370
C783        C  0.95669921  0.97534930  0.96772379    -0.04470
C784        C  0.96608435  0.00488984  0.96574919     0.07750
C785        C  0.94033091  0.01836436  0.93638777     0.01540
H786        H  0.97035247  0.95747002  0.98646476     0.09200
H787        H  0.93938189  0.04136941  0.92460898     0.08270
N788        N  0.88539474  0.89220627  0.89362842    -0.35560
N789        N  0.86200503  0.89206612  0.85639530    -0.27740
C790        C  0.85416596  0.86387179  0.84422909    -0.02980
C791        C  0.87385626  0.84529991  0.87521968     0.05630
C792        C  0.89341904  0.86410657  0.90604676     0.03720
H793        H  0.83584942  0.85745512  0.81455553     0.08830
H794        H  0.91181617  0.85791255  0.93572406     0.07660
C795        C  0.74930678  0.04341895  0.73448775     0.01130
C796        C  0.74897505  0.01786389  0.76252144     0.01130
N797        N  0.67661297  0.97098195  0.80496110    -0.26730
N798        N  0.66676042  0.99674843  0.82449566    -0.34580
C799        C  0.69001750  0.01763470  0.81025835     0.01610
C800        C  0.71568420  0.00431234  0.78042389     0.07640
C801        C  0.70608714  0.97479637  0.77772442    -0.05460
H802        H  0.68926983  0.04051865  0.82277389     0.08310
H803        H  0.71969602  0.95702478  0.75846948     0.09510
Cu804      Cu  0.62392269  0.00154966  0.87326029     0.44170
Cu805      Cu  0.65388546  0.93040033  0.82169954     0.41990
Cu806      Cu  0.59340616  0.93058895  0.92478942     0.43880
N807        N  0.58104968  0.99695801  0.92204449    -0.34110
N808        N  0.57096787  0.97121503  0.94150061    -0.28370
C809        C  0.54155794  0.97511812  0.96880483    -0.04470
C810        C  0.53225052  0.00468144  0.96628046     0.07750
C811        C  0.55801264  0.01793254  0.93643159     0.01540
H812        H  0.52781458  0.95737625  0.98801963     0.09200
H813        H  0.55898236  0.04083504  0.92404153     0.08270
N814        N  0.61284910  0.89171744  0.89347552    -0.35560
N815        N  0.63435144  0.89163102  0.85352506    -0.27740
C816        C  0.64149123  0.86340287  0.84041600    -0.02980
C817        C  0.62366701  0.84495424  0.87400322     0.05630
C818        C  0.60579876  0.86355473  0.90719675     0.03720
H819        H  0.65869235  0.85682596  0.80928504     0.08830
H820        H  0.58871284  0.85712075  0.93858373     0.07660
N821        N  0.92789091  0.59108464  0.94294341    -0.26730
N822        N  0.91754390  0.56512285  0.92479928    -0.34580
C823        C  0.94047625  0.54428176  0.93998509     0.01610
C824        C  0.96636107  0.55789401  0.96899874     0.07640
C825        C  0.95726687  0.58749606  0.97013205    -0.05460
H826        H  0.93929963  0.52118146  0.92881747     0.08310
H827        H  0.97108868  0.60548679  0.98836364     0.09510
Cu828      Cu  0.87424760  0.56005468  0.87699899     0.44170
Cu829      Cu  0.90602086  0.63157723  0.92517041     0.41990
Cu830      Cu  0.84305885  0.63123846  0.82714366     0.43880
N831        N  0.83100902  0.56484392  0.82903313    -0.34110
N832        N  0.82089520  0.59069343  0.81023785    -0.28370
C833        C  0.79149712  0.58699960  0.78311954    -0.04470
C834        C  0.78213758  0.55745188  0.78501027     0.07750
C835        C  0.80789712  0.54396717  0.81434752     0.01540
H836        H  0.77783556  0.60488684  0.76441511     0.09200
H837        H  0.80886809  0.52095136  0.82605808     0.08270
N838        N  0.86283901  0.67011228  0.85723598    -0.35560
N839        N  0.88622855  0.67024764  0.89446934    -0.27740
C840        C  0.89408977  0.69844182  0.90661111    -0.02980
C841        C  0.87441250  0.71701630  0.87560472     0.05630
C842        C  0.85483696  0.69821219  0.84479298     0.03720
H843        H  0.91240867  0.70485727  0.93628223     0.08830
H844        H  0.83644245  0.70440747  0.81511289     0.07660
N845        N  0.92635654  0.47207407  0.55770685    -0.26730
N846        N  0.91675217  0.49772873  0.57793343    -0.34580
C847        C  0.94018208  0.51858235  0.56420963     0.01610
C848        C  0.96570433  0.50533997  0.53400485     0.07640
C849        C  0.95583496  0.47592301  0.53049889    -0.05460
H850        H  0.93963755  0.54136750  0.57728331     0.08310
H851        H  0.96926782  0.45823738  0.51072813     0.09510
Cu852      Cu  0.87403372  0.50230959  0.62694300     0.44170
Cu853      Cu  0.90343319  0.43153508  0.57389376     0.41990
Cu854      Cu  0.84432971  0.43123758  0.67891638     0.43880
N855        N  0.83130178  0.49746838  0.67588303    -0.34110
N856        N  0.82157709  0.47171903  0.69570777    -0.28370
C857        C  0.79213724  0.47546603  0.72302753    -0.04470
C858        C  0.78242029  0.50491735  0.72002033     0.07750
C859        C  0.80799044  0.51827678  0.68997456     0.01540
H860        H  0.77863810  0.45769499  0.74255118     0.09200
H861        H  0.80865086  0.54112847  0.67726219     0.08270
N862        N  0.86335240  0.39256013  0.64633804    -0.35560
N863        N  0.88447268  0.39267798  0.60603408    -0.27740
C864        C  0.89159618  0.36454176  0.59249571    -0.02980
C865        C  0.87404102  0.34562195  0.62599709     0.05630
C866        C  0.85637797  0.36434178  0.65964681     0.03720
H867        H  0.90806565  0.35845501  0.56024634     0.08830
H868        H  0.83997270  0.35806310  0.69187986     0.07660
N869        N  0.67719854  0.59109277  0.80890422    -0.26730
N870        N  0.66713883  0.56535797  0.82842094    -0.34580
C871        C  0.69021014  0.54439062  0.81412255     0.01610
C872        C  0.71597263  0.55763666  0.78427068     0.07640
C873        C  0.70662960  0.58718940  0.78164700    -0.05460
H874        H  0.68926445  0.52149956  0.82658036     0.08310
H875        H  0.72036657  0.60492407  0.76239971     0.09510
Cu876      Cu  0.62425807  0.56076634  0.87719073     0.44170
Cu877      Cu  0.65470244  0.63171831  0.82549075     0.41990
Cu878      Cu  0.59423248  0.63192231  0.92859544     0.43880
N879        N  0.58142991  0.56556707  0.92597303    -0.34110
N880        N  0.57155858  0.59134101  0.94545377    -0.28370
C881        C  0.54210537  0.58752686  0.97273750    -0.04470
C882        C  0.53254042  0.55800103  0.97012973     0.07750
C883        C  0.55820492  0.54467411  0.94029435     0.01540
H884        H  0.52849249  0.60530500  0.99196552     0.09200
H885        H  0.55897388  0.52177951  0.92784088     0.08270
N886        N  0.61369991  0.67068476  0.89667597    -0.35560
N887        N  0.63519715  0.67059550  0.85671942    -0.27740
C888        C  0.64221048  0.69875851  0.84295461    -0.02980
C889        C  0.62432112  0.71735971  0.87612462     0.05630
C890        C  0.60652687  0.69891213  0.90974573     0.03720
H891        H  0.65929566  0.70519287  0.81156709     0.08830
H892        H  0.58933278  0.70548863  0.94088558     0.07660
C893        C  0.99928079  0.54443593  0.98813293     0.01130
C894        C  0.99900749  0.51887603  0.51615397     0.01130
C895        C  0.74911166  0.54398351  0.76617212     0.01130
C896        C  0.74920528  0.51842880  0.73813748     0.01130
N897        N  0.57001699  0.47187289  0.56149434    -0.26730
N898        N  0.58063386  0.49779752  0.57946454    -0.34580
C899        C  0.55790106  0.51877763  0.56415356     0.01610
C900        C  0.53186696  0.50529135  0.53524541     0.07640
C901        C  0.54065796  0.47561900  0.53434092    -0.05460
H902        H  0.55930943  0.54189204  0.57517323     0.08310
H903        H  0.52664332  0.45768552  0.51626594     0.09510
Cu904      Cu  0.62405245  0.50262204  0.62714347     0.44170
Cu905      Cu  0.59167902  0.43123637  0.57895712     0.41990
Cu906      Cu  0.65622401  0.43104181  0.67442431     0.43880
N907        N  0.66743196  0.49760583  0.67480804    -0.34110
N908        N  0.67794404  0.47161716  0.69251442    -0.28370
C909        C  0.70731797  0.47525940  0.71970759    -0.04470
C910        C  0.71623778  0.50492891  0.71908894     0.07750
C911        C  0.69025553  0.51852081  0.69031748     0.01540
H912        H  0.72127348  0.45725534  0.73756209     0.09200
H913        H  0.68896014  0.54166502  0.67948043     0.08270
N914        N  0.63600633  0.39227803  0.64444431    -0.35560
N915        N  0.61205491  0.39235285  0.60802510    -0.27740
C916        C  0.60407704  0.36422788  0.59556159    -0.02980
C917        C  0.62419407  0.34542514  0.62559132     0.05630
C918        C  0.64417896  0.36410501  0.65613665     0.03720
H919        H  0.58465138  0.35803790  0.56733711     0.08830
H920        H  0.66367274  0.35780726  0.68415263     0.07660
C921        C  0.64361480  0.79698186  0.91138138     0.24160
C922        C  0.62384099  0.81234062  0.87452845    -0.23950
C923        C  0.60421207  0.79638224  0.83821972     0.19070
C924        C  0.60436239  0.76533191  0.83875236     0.24100
C925        C  0.62414108  0.74997332  0.87559994    -0.23890
C926        C  0.64376490  0.76593194  0.91191429     0.19000
F927        F  0.66342848  0.75139700  0.94730816    -0.13850
F928        F  0.66313000  0.81210140  0.94627335    -0.16210
F929        F  0.58484146  0.75021206  0.80386791    -0.16220
F930        F  0.58454263  0.81091757  0.80283358    -0.13850
C931        C  0.90511792  0.79680356  0.88397454     0.24160
C932        C  0.87400115  0.81248250  0.87531461    -0.23950
C933        C  0.84302308  0.79651591  0.86674174     0.19070
C934        C  0.84315682  0.76551300  0.86683533     0.24100
C935        C  0.87427285  0.74983371  0.87549916    -0.23890
C936        C  0.90525166  0.76579994  0.88406815     0.19000
F937        F  0.93598942  0.75145411  0.89080245    -0.13850
F938        F  0.93573305  0.81142845  0.89061220    -0.16210
F939        F  0.81254091  0.75088940  0.86019659    -0.16220
F940        F  0.81228454  0.81086043  0.86000643    -0.13850
C941        C  0.63087355  0.26546450  0.67027575     0.24160
C942        C  0.62459768  0.24977911  0.62420733    -0.23950
C943        C  0.61818971  0.26584228  0.57859709     0.19070
C944        C  0.61806024  0.29685374  0.57904324     0.24100
C945        C  0.62433304  0.31253858  0.62511257    -0.23890
C946        C  0.63074371  0.29647468  0.67072208     0.19000
F947        F  0.63572961  0.31069693  0.71633294    -0.13850
F948        F  0.63597416  0.25085810  0.71547513    -0.16210
F949        F  0.61295571  0.31146300  0.53384792    -0.16220
F950        F  0.61319895  0.25161666  0.53299080    -0.13850
C951        C  0.84497172  0.29653861  0.64352820     0.24160
C952        C  0.87417161  0.31262378  0.62590322    -0.23950
C953        C  0.90349975  0.29681169  0.60818950     0.19070
C954        C  0.90362212  0.26577466  0.60809622     0.24100
C955        C  0.87442059  0.24968898  0.62571427    -0.23890
C956        C  0.84509401  0.26550065  0.64343471     0.19000
F957        F  0.81588787  0.25103909  0.65915605    -0.13850
F958        F  0.81565495  0.31073193  0.65934077    -0.16210
F959        F  0.93293917  0.25158262  0.59228050    -0.16220
F960        F  0.93270596  0.31127215  0.59246451    -0.13850
loop_ 
_geom_bond_atom_site_label_1 
_geom_bond_atom_site_label_2 
_geom_bond_distance 
_geom_bond_site_symmetry_2 
_ccdc_geom_bond_type 
N1            N2   1.322       .  A
N1            C5   1.342       .  A
N1           Cu9   2.070       .  S
N2            C3   1.347       .  A
N2           Cu8   2.080       .  S
C3            C4   1.387       .  A
C3            H6   1.082       .  S
C4            C5   1.382       .  A
C4           C25   1.488       .  S
C5            H7   1.078       .  S
Cu8          N11   2.080       .  S
Cu9          N19   2.070       .  S
Cu10         N12   2.070       .  S
Cu10         N18   2.070       .  S
N11          N12   1.322       .  A
N11          C15   1.347       .  A
N12          C13   1.342       .  A
C13          C14   1.382       .  A
C13          H16   1.079       .  S
C14          C15   1.387       .  A
C14          C75   1.488       .  S
C15          H17   1.082       .  S
N18          N19   1.319       .  A
N18          C22   1.345       .  A
N19          C20   1.345       .  A
C20          C21   1.389       .  A
C20          H23   1.081       .  S
C21          C22   1.389       .  A
C21         C235   1.488       .  S
C22          H24   1.081       .  S
C25         C520   1.488       .  S
C25         C266   1.362   1_554  D
C26          C64   1.488       .  S
C26         C570   1.488       .  S
C26         C265   1.362       .  D
N27          N28   1.322       .  A
N27          C31   1.340       .  A
N27         Cu35   2.064       .  S
N28          C29   1.348       .  A
N28         Cu34   2.087       .  S
C29          C30   1.389       .  A
C29          H32   1.082       .  S
C30          C31   1.381       .  A
C30          C75   1.488       .  S
C31          H33   1.078       .  S
Cu34         N37   2.087       .  S
Cu35         N45   2.063       .  S
Cu36         N38   2.064       .  S
Cu36         N44   2.064       .  S
N37          N38   1.322       .  A
N37          C41   1.348       .  A
N38          C39   1.340       .  A
C39          C40   1.381       .  A
C39          H42   1.078       .  S
C40          C41   1.389       .  A
C40         C505   1.488   1_455  S
C41          H43   1.082       .  S
N44          N45   1.318       .  A
N44          C48   1.344       .  A
N45          C46   1.344       .  A
C46          C47   1.387       .  A
C46          H49   1.081       .  S
C47          C48   1.387       .  A
C47         C222   1.483       .  S
C48          H50   1.081       .  S
N51          N52   1.322       .  A
N51          C55   1.340       .  A
N51         Cu59   2.063       .  S
N52          C53   1.348   1_565  A
N52         Cu58   2.086   1_565  S
C53          C54   1.389       .  A
C53          H56   1.082       .  S
C54          C55   1.381   1_545  A
C54          C76   1.488       .  S
C55          H57   1.078       .  S
Cu58         N61   2.086   1_545  S
Cu59         N69   2.063       .  S
Cu60         N62   2.063       .  S
Cu60         N68   2.063       .  S
N61          N62   1.322       .  A
N61          C65   1.348   1_565  A
N62          C63   1.340       .  A
C63          C64   1.380   1_565  A
C63          H66   1.078       .  S
C64          C65   1.389       .  A
C65          H67   1.082       .  S
N68          N69   1.319       .  A
N68          C72   1.344       .  A
N69          C70   1.344       .  A
C70          C71   1.386       .  A
C70          H73   1.081       .  S
C71          C72   1.386       .  A
C71         C212   1.480       .  S
C72          H74   1.081       .  S
C75          C76   1.362       .  D
C76          C80   1.488       .  S
N77          N78   1.322       .  A
N77          C81   1.342       .  A
N77         Cu85   2.071       .  S
N78          C79   1.347   1_565  A
N78         Cu84   2.081   1_565  S
C79          C80   1.387       .  A
C79          H82   1.082       .  S
C80          C81   1.382   1_545  A
C81          H83   1.078       .  S
Cu84         N87   2.081   1_545  S
Cu85         N95   2.071       .  S
Cu86         N88   2.071       .  S
Cu86         N94   2.070       .  S
N87          N88   1.322       .  A
N87          C91   1.347   1_565  A
N88          C89   1.341       .  A
C89          C90   1.382   1_565  A
C89          H92   1.078       .  S
C90          C91   1.387       .  A
C90         C506   1.488   1_455  S
C91          H93   1.082       .  S
N94          N95   1.321       .  A
N94          C98   1.346       .  A
N95          C96   1.346       .  A
C96          C97   1.382       .  A
C96          H99   1.082       .  S
C97          C98   1.382       .  A
C97         C202   1.471       .  S
C98         H100   1.082       .  S
N101        N102   1.322       .  A
N101        C105   1.340       .  A
N101       Cu109   2.063       .  S
N102        C103   1.348       .  A
N102       Cu108   2.086       .  S
C103        C104   1.389       .  A
C103        H106   1.082       .  S
C104        C105   1.381       .  A
C104        C173   1.488       .  S
C105        H107   1.078       .  S
Cu108       N111   2.086       .  S
Cu109       N119   2.063       .  S
Cu110       N112   2.063       .  S
Cu110       N118   2.063       .  S
N111        N112   1.322       .  A
N111        C115   1.348       .  A
N112        C113   1.340       .  A
C113        C114   1.380       .  A
C113        H116   1.078       .  S
C114        C115   1.389       .  A
C114        C175   1.488       .  S
C115        H117   1.082       .  S
N118        N119   1.319       .  A
N118        C122   1.344       .  A
N119        C120   1.344       .  A
C120        C121   1.386       .  A
C120        H123   1.081       .  S
C121        C122   1.386       .  A
C121        C215   1.480       .  S
C122        H124   1.081       .  S
N125        N126   1.322       .  A
N125        C129   1.342       .  A
N125       Cu133   2.070       .  S
N126        C127   1.347       .  A
N126       Cu132   2.080       .  S
C127        C128   1.387       .  A
C127        H130   1.082       .  S
C128        C129   1.382       .  A
C128        C174   1.488       .  S
C129        H131   1.078       .  S
Cu132       N135   2.080       .  S
Cu133       N143   2.070       .  S
Cu134       N136   2.070       .  S
Cu134       N142   2.070       .  S
N135        N136   1.322       .  A
N135        C139   1.347       .  A
N136        C137   1.342       .  A
C137        C138   1.382       .  A
C137        H140   1.078       .  S
C138        C139   1.387       .  A
C138        C176   1.488       .  S
C139        H141   1.082       .  S
N142        N143   1.319       .  A
N142        C146   1.345       .  A
N143        C144   1.345       .  A
C144        C145   1.389       .  A
C144        H147   1.081       .  S
C145        C146   1.389       .  A
C145        C232   1.488       .  S
C146        H148   1.081       .  S
N149        N150   1.322       .  A
N149        C153   1.342       .  A
N149       Cu157   2.071       .  S
N150        C151   1.347       .  A
N150       Cu156   2.081       .  S
C151        C152   1.387       .  A
C151        H154   1.082       .  S
C152        C153   1.382       .  A
C152        C175   1.488       .  S
C153        H155   1.078       .  S
Cu156       N159   2.081       .  S
Cu157       N167   2.071       .  S
Cu158       N160   2.071       .  S
Cu158       N166   2.071       .  S
N159        N160   1.322       .  A
N159        C163   1.347       .  A
N160        C161   1.342       .  A
C161        C162   1.382       .  A
C161        H164   1.078       .  S
C162        C163   1.387       .  A
C162        C653   1.488   1_455  S
C163        H165   1.082       .  S
N166        N167   1.321       .  A
N166        C170   1.346       .  A
N167        C168   1.346       .  A
C168        C169   1.382       .  A
C168        H171   1.082       .  S
C169        C170   1.382       .  A
C169        C205   1.471       .  S
C170        H172   1.082       .  S
C173        C642   1.488       .  S
C173        C414   1.362       .  D
C174        C660   1.488       .  S
C174        C413   1.362   1_554  D
C175        C176   1.362       .  D
C176        C190   1.488       .  S
N177        N178   1.322       .  A
N177        C181   1.340       .  A
N177       Cu185   2.064       .  S
N178        C179   1.348       .  A
N178       Cu184   2.087       .  S
C179        C180   1.389       .  A
C179        H182   1.082       .  S
C180        C181   1.381       .  A
C180        C654   1.488   1_455  S
C181        H183   1.078       .  S
Cu184       N187   2.087       .  S
Cu185       N195   2.064       .  S
Cu186       N188   2.064       .  S
Cu186       N194   2.064       .  S
N187        N188   1.322       .  A
N187        C191   1.348       .  A
N188        C189   1.340       .  A
C189        C190   1.381       .  A
C189        H192   1.078       .  S
C190        C191   1.389       .  A
C191        H193   1.082       .  S
N194        N195   1.318       .  A
N194        C198   1.344       .  A
N195        C196   1.344       .  A
C196        C197   1.387       .  A
C196        H199   1.081       .  S
C197        C198   1.387       .  A
C197        C225   1.483       .  S
C198        H200   1.081       .  S
C201        C202   1.404       .  A
C201        C206   1.400       .  A
C201        F208   1.358       .  S
C202        C203   1.404       .  A
C203        C204   1.400       .  A
C203        F210   1.358       .  S
C204        C205   1.404       .  A
C204        F209   1.358       .  S
C205        C206   1.404       .  A
C206        F207   1.358       .  S
C211        C212   1.407       .  A
C211        C216   1.398       .  A
C211        F218   1.358       .  S
C212        C213   1.407       .  A
C213        C214   1.398       .  A
C213        F220   1.358       .  S
C214        C215   1.407       .  A
C214        F219   1.358       .  S
C215        C216   1.407       .  A
C216        F217   1.358       .  S
C221        C222   1.407       .  A
C221        C226   1.398       .  A
C221        F228   1.357       .  S
C222        C223   1.407       .  A
C223        C224   1.399       .  A
C223        F230   1.357       .  S
C224        C225   1.407       .  A
C224        F229   1.357       .  S
C225        C226   1.407       .  A
C226        F227   1.357       .  S
C231        C232   1.409       .  A
C231        C236   1.400       .  A
C231        F238   1.357       .  S
C232        C233   1.409       .  A
C233        C234   1.400       .  A
C233        F240   1.357       .  S
C234        C235   1.409       .  A
C234        F239   1.357       .  S
C235        C236   1.409       .  A
C236        F237   1.357       .  S
N241        N242   1.322       .  A
N241        C245   1.342       .  A
N241       Cu249   2.070       .  S
N242        C243   1.347       .  A
N242       Cu248   2.080       .  S
C243        C244   1.387       .  A
C243        H246   1.082       .  S
C244        C245   1.382       .  A
C244        C265   1.488       .  S
C245        H247   1.078       .  S
Cu248       N251   2.080       .  S
Cu249       N259   2.070       .  S
Cu250       N252   2.070       .  S
Cu250       N258   2.070       .  S
N251        N252   1.322       .  A
N251        C255   1.347       .  A
N252        C253   1.342       .  A
C253        C254   1.382       .  A
C253        H256   1.079       .  S
C254        C255   1.387       .  A
C254        C315   1.488       .  S
C255        H257   1.082       .  S
N258        N259   1.319       .  A
N258        C262   1.345       .  A
N259        C260   1.345       .  A
C260        C261   1.389       .  A
C260        H263   1.081       .  S
C261        C262   1.389       .  A
C261        C475   1.488       .  S
C262        H264   1.081       .  S
C265        C760   1.488       .  S
C266        C304   1.488       .  S
C266        C810   1.488       .  S
N267        N268   1.322       .  A
N267        C271   1.340       .  A
N267       Cu275   2.064       .  S
N268        C269   1.348       .  A
N268       Cu274   2.087       .  S
C269        C270   1.389       .  A
C269        H272   1.082       .  S
C270        C271   1.381       .  A
C270        C315   1.488       .  S
C271        H273   1.078       .  S
Cu274       N277   2.087       .  S
Cu275       N285   2.063       .  S
Cu276       N278   2.064       .  S
Cu276       N284   2.064       .  S
N277        N278   1.322       .  A
N277        C281   1.348       .  A
N278        C279   1.340       .  A
C279        C280   1.381       .  A
C279        H282   1.078       .  S
C280        C281   1.389       .  A
C280        C745   1.488   1_455  S
C281        H283   1.082       .  S
N284        N285   1.318       .  A
N284        C288   1.344       .  A
N285        C286   1.344       .  A
C286        C287   1.387       .  A
C286        H289   1.081       .  S
C287        C288   1.387       .  A
C287        C462   1.483       .  S
C288        H290   1.081       .  S
N291        N292   1.322       .  A
N291        C295   1.340       .  A
N291       Cu299   2.063       .  S
N292        C293   1.348   1_565  A
N292       Cu298   2.086   1_565  S
C293        C294   1.389       .  A
C293        H296   1.082       .  S
C294        C295   1.381   1_545  A
C294        C316   1.488       .  S
C295        H297   1.078       .  S
Cu298       N301   2.086   1_545  S
Cu299       N309   2.063       .  S
Cu300       N302   2.063       .  S
Cu300       N308   2.063       .  S
N301        N302   1.322       .  A
N301        C305   1.348   1_565  A
N302        C303   1.340       .  A
C303        C304   1.380   1_565  A
C303        H306   1.078       .  S
C304        C305   1.389       .  A
C305        H307   1.082       .  S
N308        N309   1.319       .  A
N308        C312   1.344       .  A
N309        C310   1.344       .  A
C310        C311   1.386       .  A
C310        H313   1.081       .  S
C311        C312   1.386       .  A
C311        C452   1.480       .  S
C312        H314   1.081       .  S
C315        C316   1.362       .  D
C316        C320   1.488       .  S
N317        N318   1.322       .  A
N317        C321   1.342       .  A
N317       Cu325   2.071       .  S
N318        C319   1.347   1_565  A
N318       Cu324   2.081   1_565  S
C319        C320   1.387       .  A
C319        H322   1.082       .  S
C320        C321   1.382   1_545  A
C321        H323   1.078       .  S
Cu324       N327   2.081   1_545  S
Cu325       N335   2.071       .  S
Cu326       N328   2.071       .  S
Cu326       N334   2.070       .  S
N327        N328   1.322       .  A
N327        C331   1.347   1_565  A
N328        C329   1.341       .  A
C329        C330   1.382   1_565  A
C329        H332   1.078       .  S
C330        C331   1.387       .  A
C330        C746   1.488   1_455  S
C331        H333   1.082       .  S
N334        N335   1.321       .  A
N334        C338   1.346       .  A
N335        C336   1.346       .  A
C336        C337   1.382       .  A
C336        H339   1.082       .  S
C337        C338   1.382       .  A
C337        C442   1.471       .  S
C338        H340   1.082       .  S
N341        N342   1.322       .  A
N341        C345   1.340       .  A
N341       Cu349   2.063       .  S
N342        C343   1.348       .  A
N342       Cu348   2.086       .  S
C343        C344   1.389       .  A
C343        H346   1.082       .  S
C344        C345   1.381       .  A
C344        C413   1.488       .  S
C345        H347   1.078       .  S
Cu348       N351   2.086       .  S
Cu349       N359   2.063       .  S
Cu350       N352   2.063       .  S
Cu350       N358   2.063       .  S
N351        N352   1.322       .  A
N351        C355   1.348       .  A
N352        C353   1.340       .  A
C353        C354   1.380       .  A
C353        H356   1.078       .  S
C354        C355   1.389       .  A
C354        C415   1.488       .  S
C355        H357   1.082       .  S
N358        N359   1.319       .  A
N358        C362   1.344       .  A
N359        C360   1.344       .  A
C360        C361   1.386       .  A
C360        H363   1.081       .  S
C361        C362   1.386       .  A
C361        C455   1.480       .  S
C362        H364   1.081       .  S
N365        N366   1.322       .  A
N365        C369   1.342       .  A
N365       Cu373   2.070       .  S
N366        C367   1.347       .  A
N366       Cu372   2.080       .  S
C367        C368   1.387       .  A
C367        H370   1.082       .  S
C368        C369   1.382       .  A
C368        C414   1.488       .  S
C369        H371   1.078       .  S
Cu372       N375   2.080       .  S
Cu373       N383   2.070       .  S
Cu374       N376   2.070       .  S
Cu374       N382   2.070       .  S
N375        N376   1.322       .  A
N375        C379   1.347       .  A
N376        C377   1.342       .  A
C377        C378   1.382       .  A
C377        H380   1.078       .  S
C378        C379   1.387       .  A
C378        C416   1.488       .  S
C379        H381   1.082       .  S
N382        N383   1.319       .  A
N382        C386   1.345       .  A
N383        C384   1.345       .  A
C384        C385   1.389       .  A
C384        H387   1.081       .  S
C385        C386   1.389       .  A
C385        C472   1.488       .  S
C386        H388   1.081       .  S
N389        N390   1.322       .  A
N389        C393   1.342       .  A
N389       Cu397   2.071       .  S
N390        C391   1.347       .  A
N390       Cu396   2.081       .  S
C391        C392   1.387       .  A
C391        H394   1.082       .  S
C392        C393   1.382       .  A
C392        C415   1.488       .  S
C393        H395   1.078       .  S
Cu396       N399   2.081       .  S
Cu397       N407   2.071       .  S
Cu398       N400   2.071       .  S
Cu398       N406   2.071       .  S
N399        N400   1.322       .  A
N399        C403   1.347       .  A
N400        C401   1.342       .  A
C401        C402   1.382       .  A
C401        H404   1.078       .  S
C402        C403   1.387       .  A
C402        C893   1.488   1_455  S
C403        H405   1.082       .  S
N406        N407   1.321       .  A
N406        C410   1.346       .  A
N407        C408   1.346       .  A
C408        C409   1.382       .  A
C408        H411   1.082       .  S
C409        C410   1.382       .  A
C409        C445   1.471       .  S
C410        H412   1.082       .  S
C413        C882   1.488       .  S
C414        C900   1.488       .  S
C415        C416   1.362       .  D
C416        C430   1.488       .  S
N417        N418   1.322       .  A
N417        C421   1.340       .  A
N417       Cu425   2.064       .  S
N418        C419   1.348       .  A
N418       Cu424   2.087       .  S
C419        C420   1.389       .  A
C419        H422   1.082       .  S
C420        C421   1.381       .  A
C420        C894   1.488   1_455  S
C421        H423   1.078       .  S
Cu424       N427   2.087       .  S
Cu425       N435   2.064       .  S
Cu426       N428   2.064       .  S
Cu426       N434   2.064       .  S
N427        N428   1.322       .  A
N427        C431   1.348       .  A
N428        C429   1.340       .  A
C429        C430   1.381       .  A
C429        H432   1.078       .  S
C430        C431   1.389       .  A
C431        H433   1.082       .  S
N434        N435   1.318       .  A
N434        C438   1.344       .  A
N435        C436   1.344       .  A
C436        C437   1.387       .  A
C436        H439   1.081       .  S
C437        C438   1.387       .  A
C437        C465   1.483       .  S
C438        H440   1.081       .  S
C441        C442   1.404       .  A
C441        C446   1.400       .  A
C441        F448   1.358       .  S
C442        C443   1.404       .  A
C443        C444   1.400       .  A
C443        F450   1.358       .  S
C444        C445   1.404       .  A
C444        F449   1.358       .  S
C445        C446   1.404       .  A
C446        F447   1.358       .  S
C451        C452   1.407       .  A
C451        C456   1.398       .  A
C451        F458   1.358       .  S
C452        C453   1.407       .  A
C453        C454   1.398       .  A
C453        F460   1.358       .  S
C454        C455   1.407       .  A
C454        F459   1.358       .  S
C455        C456   1.407       .  A
C456        F457   1.358       .  S
C461        C462   1.407       .  A
C461        C466   1.398       .  A
C461        F468   1.357       .  S
C462        C463   1.407       .  A
C463        C464   1.399       .  A
C463        F470   1.357       .  S
C464        C465   1.407       .  A
C464        F469   1.357       .  S
C465        C466   1.407       .  A
C466        F467   1.357       .  S
C471        C472   1.409       .  A
C471        C476   1.400       .  A
C471        F478   1.357       .  S
C472        C473   1.409       .  A
C473        C474   1.400       .  A
C473        F480   1.357       .  S
C474        C475   1.409       .  A
C474        F479   1.357       .  S
C475        C476   1.409       .  A
C476        F477   1.357       .  S
N481        N482   1.322       .  A
N481        C485   1.342       .  A
N481       Cu489   2.070       .  S
N482        C483   1.347       .  A
N482       Cu488   2.080       .  S
C483        C484   1.387       .  A
C483        H486   1.082       .  S
C484        C485   1.382       .  A
C484        C505   1.488       .  S
C485        H487   1.078       .  S
Cu488       N491   2.080       .  S
Cu489       N499   2.070       .  S
Cu490       N492   2.070       .  S
Cu490       N498   2.070       .  S
N491        N492   1.322       .  A
N491        C495   1.347       .  A
N492        C493   1.342       .  A
C493        C494   1.382       .  A
C493        H496   1.079       .  S
C494        C495   1.387       .  A
C494        C555   1.488       .  S
C495        H497   1.082       .  S
N498        N499   1.319       .  A
N498        C502   1.345       .  A
N499        C500   1.345       .  A
C500        C501   1.389       .  A
C500        H503   1.081       .  S
C501        C502   1.389       .  A
C501        C715   1.488       .  S
C502        H504   1.081       .  S
C505        C746   1.362   1_554  D
C506        C544   1.488       .  S
C506        C745   1.362       .  D
N507        N508   1.322       .  A
N507        C511   1.340       .  A
N507       Cu515   2.064       .  S
N508        C509   1.348       .  A
N508       Cu514   2.087       .  S
C509        C510   1.389       .  A
C509        H512   1.082       .  S
C510        C511   1.381       .  A
C510        C555   1.488       .  S
C511        H513   1.078       .  S
Cu514       N517   2.087       .  S
Cu515       N525   2.063       .  S
Cu516       N518   2.064       .  S
Cu516       N524   2.064       .  S
N517        N518   1.322       .  A
N517        C521   1.348       .  A
N518        C519   1.340       .  A
C519        C520   1.381       .  A
C519        H522   1.078       .  S
C520        C521   1.389       .  A
C521        H523   1.082       .  S
N524        N525   1.318       .  A
N524        C528   1.344       .  A
N525        C526   1.344       .  A
C526        C527   1.387       .  A
C526        H529   1.081       .  S
C527        C528   1.387       .  A
C527        C702   1.483       .  S
C528        H530   1.081       .  S
N531        N532   1.322       .  A
N531        C535   1.340       .  A
N531       Cu539   2.063       .  S
N532        C533   1.348   1_565  A
N532       Cu538   2.086   1_565  S
C533        C534   1.389       .  A
C533        H536   1.082       .  S
C534        C535   1.381   1_545  A
C534        C556   1.488       .  S
C535        H537   1.078       .  S
Cu538       N541   2.086   1_545  S
Cu539       N549   2.063       .  S
Cu540       N542   2.063       .  S
Cu540       N548   2.063       .  S
N541        N542   1.322       .  A
N541        C545   1.348   1_565  A
N542        C543   1.340       .  A
C543        C544   1.380   1_565  A
C543        H546   1.078       .  S
C544        C545   1.389       .  A
C545        H547   1.082       .  S
N548        N549   1.319       .  A
N548        C552   1.344       .  A
N549        C550   1.344       .  A
C550        C551   1.386       .  A
C550        H553   1.081       .  S
C551        C552   1.386       .  A
C551        C692   1.480       .  S
C552        H554   1.081       .  S
C555        C556   1.362       .  D
C556        C560   1.488       .  S
N557        N558   1.322       .  A
N557        C561   1.342       .  A
N557       Cu565   2.071       .  S
N558        C559   1.347   1_565  A
N558       Cu564   2.081   1_565  S
C559        C560   1.387       .  A
C559        H562   1.082       .  S
C560        C561   1.382   1_545  A
C561        H563   1.078       .  S
Cu564       N567   2.081   1_545  S
Cu565       N575   2.071       .  S
Cu566       N568   2.071       .  S
Cu566       N574   2.070       .  S
N567        N568   1.322       .  A
N567        C571   1.347   1_565  A
N568        C569   1.341       .  A
C569        C570   1.382   1_565  A
C569        H572   1.078       .  S
C570        C571   1.387       .  A
C571        H573   1.082       .  S
N574        N575   1.321       .  A
N574        C578   1.346       .  A
N575        C576   1.346       .  A
C576        C577   1.382       .  A
C576        H579   1.082       .  S
C577        C578   1.382       .  A
C577        C682   1.471       .  S
C578        H580   1.082       .  S
N581        N582   1.322       .  A
N581        C585   1.340       .  A
N581       Cu589   2.063       .  S
N582        C583   1.348       .  A
N582       Cu588   2.086       .  S
C583        C584   1.389       .  A
C583        H586   1.082       .  S
C584        C585   1.381       .  A
C584        C653   1.488       .  S
C585        H587   1.078       .  S
Cu588       N591   2.086       .  S
Cu589       N599   2.063       .  S
Cu590       N592   2.063       .  S
Cu590       N598   2.063       .  S
N591        N592   1.322       .  A
N591        C595   1.348       .  A
N592        C593   1.340       .  A
C593        C594   1.380       .  A
C593        H596   1.078       .  S
C594        C595   1.389       .  A
C594        C655   1.488       .  S
C595        H597   1.082       .  S
N598        N599   1.319       .  A
N598        C602   1.344       .  A
N599        C600   1.344       .  A
C600        C601   1.386       .  A
C600        H603   1.081       .  S
C601        C602   1.386       .  A
C601        C695   1.480       .  S
C602        H604   1.081       .  S
N605        N606   1.322       .  A
N605        C609   1.342       .  A
N605       Cu613   2.070       .  S
N606        C607   1.347       .  A
N606       Cu612   2.080       .  S
C607        C608   1.387       .  A
C607        H610   1.082       .  S
C608        C609   1.382       .  A
C608        C654   1.488       .  S
C609        H611   1.078       .  S
Cu612       N615   2.080       .  S
Cu613       N623   2.070       .  S
Cu614       N616   2.070       .  S
Cu614       N622   2.070       .  S
N615        N616   1.322       .  A
N615        C619   1.347       .  A
N616        C617   1.342       .  A
C617        C618   1.382       .  A
C617        H620   1.078       .  S
C618        C619   1.387       .  A
C618        C656   1.488       .  S
C619        H621   1.082       .  S
N622        N623   1.319       .  A
N622        C626   1.345       .  A
N623        C624   1.345       .  A
C624        C625   1.389       .  A
C624        H627   1.081       .  S
C625        C626   1.389       .  A
C625        C712   1.488       .  S
C626        H628   1.081       .  S
N629        N630   1.322       .  A
N629        C633   1.342       .  A
N629       Cu637   2.071       .  S
N630        C631   1.347       .  A
N630       Cu636   2.081       .  S
C631        C632   1.387       .  A
C631        H634   1.082       .  S
C632        C633   1.382       .  A
C632        C655   1.488       .  S
C633        H635   1.078       .  S
Cu636       N639   2.081       .  S
Cu637       N647   2.071       .  S
Cu638       N640   2.071       .  S
Cu638       N646   2.071       .  S
N639        N640   1.322       .  A
N639        C643   1.347       .  A
N640        C641   1.342       .  A
C641        C642   1.382       .  A
C641        H644   1.078       .  S
C642        C643   1.387       .  A
C643        H645   1.082       .  S
N646        N647   1.321       .  A
N646        C650   1.346       .  A
N647        C648   1.346       .  A
C648        C649   1.382       .  A
C648        H651   1.082       .  S
C649        C650   1.382       .  A
C649        C685   1.471       .  S
C650        H652   1.082       .  S
C653        C894   1.362       .  D
C654        C893   1.362   1_554  D
C655        C656   1.362       .  D
C656        C670   1.488       .  S
N657        N658   1.322       .  A
N657        C661   1.340       .  A
N657       Cu665   2.064       .  S
N658        C659   1.348       .  A
N658       Cu664   2.087       .  S
C659        C660   1.389       .  A
C659        H662   1.082       .  S
C660        C661   1.381       .  A
C661        H663   1.078       .  S
Cu664       N667   2.087       .  S
Cu665       N675   2.064       .  S
Cu666       N668   2.064       .  S
Cu666       N674   2.064       .  S
N667        N668   1.322       .  A
N667        C671   1.348       .  A
N668        C669   1.340       .  A
C669        C670   1.381       .  A
C669        H672   1.078       .  S
C670        C671   1.389       .  A
C671        H673   1.082       .  S
N674        N675   1.318       .  A
N674        C678   1.344       .  A
N675        C676   1.344       .  A
C676        C677   1.387       .  A
C676        H679   1.081       .  S
C677        C678   1.387       .  A
C677        C705   1.483       .  S
C678        H680   1.081       .  S
C681        C682   1.404       .  A
C681        C686   1.400       .  A
C681        F688   1.358       .  S
C682        C683   1.404       .  A
C683        C684   1.400       .  A
C683        F690   1.358       .  S
C684        C685   1.404       .  A
C684        F689   1.358       .  S
C685        C686   1.404       .  A
C686        F687   1.358       .  S
C691        C692   1.407       .  A
C691        C696   1.398       .  A
C691        F698   1.358       .  S
C692        C693   1.407       .  A
C693        C694   1.398       .  A
C693        F700   1.358       .  S
C694        C695   1.407       .  A
C694        F699   1.358       .  S
C695        C696   1.407       .  A
C696        F697   1.358       .  S
C701        C702   1.407       .  A
C701        C706   1.398       .  A
C701        F708   1.357       .  S
C702        C703   1.407       .  A
C703        C704   1.399       .  A
C703        F710   1.357       .  S
C704        C705   1.407       .  A
C704        F709   1.357       .  S
C705        C706   1.407       .  A
C706        F707   1.357       .  S
C711        C712   1.409       .  A
C711        C716   1.400       .  A
C711        F718   1.357       .  S
C712        C713   1.409       .  A
C713        C714   1.400       .  A
C713        F720   1.357       .  S
C714        C715   1.409       .  A
C714        F719   1.357       .  S
C715        C716   1.409       .  A
C716        F717   1.357       .  S
N721        N722   1.322       .  A
N721        C725   1.342       .  A
N721       Cu729   2.070       .  S
N722        C723   1.347       .  A
N722       Cu728   2.080       .  S
C723        C724   1.387       .  A
C723        H726   1.082       .  S
C724        C725   1.382       .  A
C724        C745   1.488       .  S
C725        H727   1.078       .  S
Cu728       N731   2.080       .  S
Cu729       N739   2.070       .  S
Cu730       N732   2.070       .  S
Cu730       N738   2.070       .  S
N731        N732   1.322       .  A
N731        C735   1.347       .  A
N732        C733   1.342       .  A
C733        C734   1.382       .  A
C733        H736   1.079       .  S
C734        C735   1.387       .  A
C734        C795   1.488       .  S
C735        H737   1.082       .  S
N738        N739   1.319       .  A
N738        C742   1.345       .  A
N739        C740   1.345       .  A
C740        C741   1.389       .  A
C740        H743   1.081       .  S
C741        C742   1.389       .  A
C741        C955   1.488       .  S
C742        H744   1.081       .  S
C746        C784   1.488       .  S
N747        N748   1.322       .  A
N747        C751   1.340       .  A
N747       Cu755   2.064       .  S
N748        C749   1.348       .  A
N748       Cu754   2.087       .  S
C749        C750   1.389       .  A
C749        H752   1.082       .  S
C750        C751   1.381       .  A
C750        C795   1.488       .  S
C751        H753   1.078       .  S
Cu754       N757   2.087       .  S
Cu755       N765   2.063       .  S
Cu756       N758   2.064       .  S
Cu756       N764   2.064       .  S
N757        N758   1.322       .  A
N757        C761   1.348       .  A
N758        C759   1.340       .  A
C759        C760   1.381       .  A
C759        H762   1.078       .  S
C760        C761   1.389       .  A
C761        H763   1.082       .  S
N764        N765   1.318       .  A
N764        C768   1.344       .  A
N765        C766   1.344       .  A
C766        C767   1.387       .  A
C766        H769   1.081       .  S
C767        C768   1.387       .  A
C767        C942   1.483       .  S
C768        H770   1.081       .  S
N771        N772   1.322       .  A
N771        C775   1.340       .  A
N771       Cu779   2.063       .  S
N772        C773   1.348   1_565  A
N772       Cu778   2.086   1_565  S
C773        C774   1.389       .  A
C773        H776   1.082       .  S
C774        C775   1.381   1_545  A
C774        C796   1.488       .  S
C775        H777   1.078       .  S
Cu778       N781   2.086   1_545  S
Cu779       N789   2.063       .  S
Cu780       N782   2.063       .  S
Cu780       N788   2.063       .  S
N781        N782   1.322       .  A
N781        C785   1.348   1_565  A
N782        C783   1.340       .  A
C783        C784   1.380   1_565  A
C783        H786   1.078       .  S
C784        C785   1.389       .  A
C785        H787   1.082       .  S
N788        N789   1.319       .  A
N788        C792   1.344       .  A
N789        C790   1.344       .  A
C790        C791   1.386       .  A
C790        H793   1.081       .  S
C791        C792   1.386       .  A
C791        C932   1.480       .  S
C792        H794   1.081       .  S
C795        C796   1.362       .  D
C796        C800   1.488       .  S
N797        N798   1.322       .  A
N797        C801   1.342       .  A
N797       Cu805   2.071       .  S
N798        C799   1.347   1_565  A
N798       Cu804   2.081   1_565  S
C799        C800   1.387       .  A
C799        H802   1.082       .  S
C800        C801   1.382   1_545  A
C801        H803   1.078       .  S
Cu804       N807   2.081   1_545  S
Cu805       N815   2.071       .  S
Cu806       N808   2.071       .  S
Cu806       N814   2.070       .  S
N807        N808   1.322       .  A
N807        C811   1.347   1_565  A
N808        C809   1.341       .  A
C809        C810   1.382   1_565  A
C809        H812   1.078       .  S
C810        C811   1.387       .  A
C811        H813   1.082       .  S
N814        N815   1.321       .  A
N814        C818   1.346       .  A
N815        C816   1.346       .  A
C816        C817   1.382       .  A
C816        H819   1.082       .  S
C817        C818   1.382       .  A
C817        C922   1.471       .  S
C818        H820   1.082       .  S
N821        N822   1.322       .  A
N821        C825   1.340       .  A
N821       Cu829   2.063       .  S
N822        C823   1.348       .  A
N822       Cu828   2.086       .  S
C823        C824   1.389       .  A
C823        H826   1.082       .  S
C824        C825   1.381       .  A
C824        C893   1.488       .  S
C825        H827   1.078       .  S
Cu828       N831   2.086       .  S
Cu829       N839   2.063       .  S
Cu830       N832   2.063       .  S
Cu830       N838   2.063       .  S
N831        N832   1.322       .  A
N831        C835   1.348       .  A
N832        C833   1.340       .  A
C833        C834   1.380       .  A
C833        H836   1.078       .  S
C834        C835   1.389       .  A
C834        C895   1.488       .  S
C835        H837   1.082       .  S
N838        N839   1.319       .  A
N838        C842   1.344       .  A
N839        C840   1.344       .  A
C840        C841   1.386       .  A
C840        H843   1.081       .  S
C841        C842   1.386       .  A
C841        C935   1.480       .  S
C842        H844   1.081       .  S
N845        N846   1.322       .  A
N845        C849   1.342       .  A
N845       Cu853   2.070       .  S
N846        C847   1.347       .  A
N846       Cu852   2.080       .  S
C847        C848   1.387       .  A
C847        H850   1.082       .  S
C848        C849   1.382       .  A
C848        C894   1.488       .  S
C849        H851   1.078       .  S
Cu852       N855   2.080       .  S
Cu853       N863   2.070       .  S
Cu854       N856   2.070       .  S
Cu854       N862   2.070       .  S
N855        N856   1.322       .  A
N855        C859   1.347       .  A
N856        C857   1.342       .  A
C857        C858   1.382       .  A
C857        H860   1.078       .  S
C858        C859   1.387       .  A
C858        C896   1.488       .  S
C859        H861   1.082       .  S
N862        N863   1.319       .  A
N862        C866   1.345       .  A
N863        C864   1.345       .  A
C864        C865   1.389       .  A
C864        H867   1.081       .  S
C865        C866   1.389       .  A
C865        C952   1.488       .  S
C866        H868   1.081       .  S
N869        N870   1.322       .  A
N869        C873   1.342       .  A
N869       Cu877   2.071       .  S
N870        C871   1.347       .  A
N870       Cu876   2.081       .  S
C871        C872   1.387       .  A
C871        H874   1.082       .  S
C872        C873   1.382       .  A
C872        C895   1.488       .  S
C873        H875   1.078       .  S
Cu876       N879   2.081       .  S
Cu877       N887   2.071       .  S
Cu878       N880   2.071       .  S
Cu878       N886   2.071       .  S
N879        N880   1.322       .  A
N879        C883   1.347       .  A
N880        C881   1.342       .  A
C881        C882   1.382       .  A
C881        H884   1.078       .  S
C882        C883   1.387       .  A
C883        H885   1.082       .  S
N886        N887   1.321       .  A
N886        C890   1.346       .  A
N887        C888   1.346       .  A
C888        C889   1.382       .  A
C888        H891   1.082       .  S
C889        C890   1.382       .  A
C889        C925   1.471       .  S
C890        H892   1.082       .  S
C895        C896   1.362       .  D
C896        C910   1.488       .  S
N897        N898   1.322       .  A
N897        C901   1.340       .  A
N897       Cu905   2.064       .  S
N898        C899   1.348       .  A
N898       Cu904   2.087       .  S
C899        C900   1.389       .  A
C899        H902   1.082       .  S
C900        C901   1.381       .  A
C901        H903   1.078       .  S
Cu904       N907   2.087       .  S
Cu905       N915   2.064       .  S
Cu906       N908   2.064       .  S
Cu906       N914   2.064       .  S
N907        N908   1.322       .  A
N907        C911   1.348       .  A
N908        C909   1.340       .  A
C909        C910   1.381       .  A
C909        H912   1.078       .  S
C910        C911   1.389       .  A
C911        H913   1.082       .  S
N914        N915   1.318       .  A
N914        C918   1.344       .  A
N915        C916   1.344       .  A
C916        C917   1.387       .  A
C916        H919   1.081       .  S
C917        C918   1.387       .  A
C917        C945   1.483       .  S
C918        H920   1.081       .  S
C921        C922   1.404       .  A
C921        C926   1.400       .  A
C921        F928   1.358       .  S
C922        C923   1.404       .  A
C923        C924   1.400       .  A
C923        F930   1.358       .  S
C924        C925   1.404       .  A
C924        F929   1.358       .  S
C925        C926   1.404       .  A
C926        F927   1.358       .  S
C931        C932   1.407       .  A
C931        C936   1.398       .  A
C931        F938   1.358       .  S
C932        C933   1.407       .  A
C933        C934   1.398       .  A
C933        F940   1.358       .  S
C934        C935   1.407       .  A
C934        F939   1.358       .  S
C935        C936   1.407       .  A
C936        F937   1.358       .  S
C941        C942   1.407       .  A
C941        C946   1.398       .  A
C941        F948   1.357       .  S
C942        C943   1.407       .  A
C943        C944   1.399       .  A
C943        F950   1.357       .  S
C944        C945   1.407       .  A
C944        F949   1.357       .  S
C945        C946   1.407       .  A
C946        F947   1.357       .  S
C951        C952   1.409       .  A
C951        C956   1.400       .  A
C951        F958   1.357       .  S
C952        C953   1.409       .  A
C953        C954   1.400       .  A
C953        F960   1.357       .  S
C954        C955   1.409       .  A
C954        F959   1.357       .  S
C955        C956   1.409       .  A
C956        F957   1.357       .  S
