geometry optimzed in LAMMPS
_audit_creation_date              2020-11-30 
_audit_creation_method            'lammps2cif' 
_symmetry_space_group_name_H-M    'P1' 
_symmetry_Int_Tables_number       1 
_symmetry_cell_setting            triclinic 
loop_ 
_symmetry_equiv_pos_as_xyz 
  x,y,z 
_cell_length_a                    31.19516724 
_cell_length_b                    31.254184243337452 
_cell_length_c                    31.16333668658626 
_cell_angle_alpha                 90.07007248278619 
_cell_angle_beta                  90.13394904788395 
_cell_angle_gamma                 89.41953886701657 
loop_ 
_atom_site_label 
_atom_site_type_symbol 
_atom_site_fract_x 
_atom_site_fract_y 
_atom_site_fract_z 
_atom_site_charge 
O1          O  0.18224849  0.45448618  0.04113067    -0.80800
O2          O  0.18242101  0.54643173  0.95269125    -0.80800
O3          O  0.23571079  0.53801687  0.08992661    -0.80800
O4          O  0.23683420  0.46281130  0.90452910    -0.80700
O5          O  0.18152912  0.54350555  0.04489770    -0.80900
O6          O  0.18259600  0.45816812  0.94924673    -0.80800
O7          O  0.23710748  0.54525418  0.90834507    -0.80800
O8          O  0.23658028  0.45563397  0.08610034    -0.80800
C9          C  0.19667878  0.45127831  0.07919151     1.08900
C10         C  0.19712662  0.54962502  0.91483424     1.08800
C11         C  0.19582421  0.54420188  0.08320316     1.08900
C12         C  0.19707190  0.45666300  0.91116461     1.08800
O13         O  0.26374568  0.41152662  0.95222534    -0.80800
O14         O  0.26222420  0.58898658  0.04239130    -0.80800
O15         O  0.31751031  0.45264652  0.04012943    -0.80800
O16         O  0.31762675  0.54762525  0.95474192    -0.80800
O17         O  0.26316775  0.59268344  0.95987431    -0.80800
O18         O  0.26372803  0.40794482  0.03487154    -0.80800
O19         O  0.31792439  0.45589108  0.95156314    -0.80700
O20         O  0.31693675  0.54417062  0.04382941    -0.80800
Co21       Co  0.22318119  0.43890531  0.99464933     1.51500
Co22       Co  0.22247189  0.56206234  0.99965339     1.51700
Co23       Co  0.27657532  0.49789236  0.05917954     1.51600
Co24       Co  0.27718977  0.50257320  0.93571571     1.51500
O25         O  0.24984267  0.50038645  0.99731722    -1.42700
C26         C  0.30368796  0.41809996  0.94799738     1.08800
C27         C  0.30223035  0.58214273  0.04652818     1.08900
C28         C  0.30349962  0.41458675  0.04091375     1.08900
C29         C  0.30291018  0.58570344  0.95300500     1.08900
O30         O  0.76654338  0.45362517  0.08855867    -0.80800
O31         O  0.76094847  0.54330913  0.91071972    -0.80800
O32         O  0.81703602  0.45533406  0.95042785    -0.80800
O33         O  0.81881495  0.54118174  0.04628205    -0.80700
O34         O  0.76163253  0.46068939  0.90695223    -0.80900
O35         O  0.76571442  0.53586169  0.09218761    -0.80800
O36         O  0.81629258  0.54425347  0.95448475    -0.80800
O37         O  0.81950456  0.45197895  0.04211750    -0.80800
C38         C  0.80627120  0.44871441  0.08050614     1.08900
C39         C  0.80096821  0.54808976  0.91685870     1.08800
C40         C  0.80172754  0.45526364  0.91259164     1.08900
C41         C  0.80522613  0.54221513  0.08471083     1.08800
O42         O  0.68352855  0.54260520  0.04767920    -0.80800
O43         O  0.68188959  0.45424600  0.95519052    -0.80800
O44         O  0.73879376  0.40608013  0.03777852    -0.80800
O45         O  0.73475696  0.59056906  0.96295150    -0.80800
O46         O  0.68106361  0.54564603  0.95889429    -0.80800
O47         O  0.68437182  0.45092315  0.04416109    -0.80800
O48         O  0.73738192  0.58737413  0.04547943    -0.80700
O49         O  0.73645622  0.40923463  0.95502000    -0.80800
Co50       Co  0.72501150  0.49597162  0.06224851     1.51500
Co51       Co  0.72172621  0.50072307  0.93878691     1.51700
Co52       Co  0.77773465  0.43651780  0.99659936     1.51600
Co53       Co  0.77672776  0.55992733  0.00196464     1.51500
O54         O  0.75035966  0.49826678  0.99991104    -1.42700
C55         C  0.69774289  0.58042161  0.05147142     1.08800
C56         C  0.69636526  0.41628144  0.95125898     1.08900
C57         C  0.69907888  0.41284431  0.04447415     1.08900
C58         C  0.69484093  0.58376037  0.95821779     1.08900
O59         O  0.44886245  0.04424289  0.31798857    -0.80800
O60         O  0.54318818  0.95512245  0.31591026    -0.80800
O61         O  0.40398826  0.96007852  0.26589376    -0.80800
O62         O  0.58514824  0.03996479  0.26215090    -0.80700
O63         O  0.45097569  0.95620742  0.31875654    -0.80900
O64         O  0.54092260  0.04369311  0.31706124    -0.80800
O65         O  0.58575144  0.95750411  0.25998438    -0.80800
O66         O  0.40343901  0.04249078  0.26412798    -0.80800
C67         C  0.41055032  0.04665431  0.30409308     1.08900
C68         C  0.58073462  0.95284931  0.30012324     1.08800
C69         C  0.41240720  0.95427797  0.30554392     1.08900
C70         C  0.57875435  0.04594008  0.30211331     1.08800
O71         O  0.53528311  0.09035243  0.23660161    -0.80800
O72         O  0.45255920  0.90979958  0.23835386    -0.80800
O73         O  0.44886385  0.04574922  0.18250817    -0.80800
O74         O  0.53744651  0.95390352  0.18047932    -0.80800
O75         O  0.53499966  0.90904957  0.23485459    -0.80800
O76         O  0.45273990  0.09069264  0.23671571    -0.80800
O77         O  0.53766967  0.04608791  0.18170738    -0.80700
O78         O  0.44819999  0.95374223  0.18349135    -0.80800
Co79       Co  0.49440864  0.06140966  0.27696388     1.51500
Co80       Co  0.49546888  0.93843178  0.27682430     1.51700
Co81       Co  0.43195369  0.00042260  0.22393699     1.51600
Co82       Co  0.55551931  0.99948657  0.22134928     1.51500
O83         O  0.49434906  0.99991397  0.24967888    -1.42700
C84         C  0.54067373  0.08381434  0.19666313     1.08800
C85         C  0.44593633  0.91605692  0.19858817     1.08900
C86         C  0.44785470  0.08395702  0.19671788     1.08900
C87         C  0.53925944  0.91576602  0.19481494     1.08900
O88         O  0.40998802  0.03829550  0.73531776    -0.80800
O89         O  0.59537109  0.96469307  0.73423708    -0.80800
O90         O  0.54674158  0.04833889  0.68272423    -0.80800
O91         O  0.45792649  0.95561647  0.68236477    -0.80700
O92         O  0.59150215  0.04708057  0.73713709    -0.80900
O93         O  0.41407607  0.95588243  0.73735629    -0.80800
O94         O  0.54958716  0.95968022  0.68060172    -0.80800
O95         O  0.45555136  0.04426760  0.68179865    -0.80800
C96         C  0.41724079  0.04422480  0.69554565     1.08900
C97         C  0.58800846  0.95914261  0.69437162     1.08800
C98         C  0.58463305  0.05184367  0.69718823     1.08900
C99         C  0.42049051  0.95073303  0.69741967     1.08800
O100        O  0.46106748  0.95461096  0.81773780    -0.80800
O101        O  0.54529392  0.04778693  0.81814246    -0.80800
O102        O  0.45617293  0.09038867  0.76254520    -0.80800
O103        O  0.54962426  0.91230818  0.76073312    -0.80800
O104        O  0.55030405  0.95588549  0.81599856    -0.80800
O105        O  0.45620914  0.04603851  0.81705176    -0.80800
O106        O  0.46718031  0.90936388  0.76372875    -0.80700
O107        O  0.53897218  0.09337952  0.76462884    -0.80800
Co108      Co  0.44122677  0.99907880  0.77669573     1.51500
Co109      Co  0.56477178  0.00356470  0.77630832     1.51700
Co110      Co  0.49975338  0.06329390  0.72309404     1.51600
Co111      Co  0.50567033  0.94012920  0.72204596     1.51500
O112        O  0.50286244  0.00150726  0.74958718    -1.42700
C113        C  0.46121175  0.91642719  0.80358663     1.08800
C114        C  0.54464912  0.08614905  0.80446389     1.08900
C115        C  0.45148250  0.08371744  0.80246100     1.08900
C116        C  0.55451372  0.91829905  0.80077006     1.08900
O117        O  0.04652086  0.31202756  0.45044053    -0.80800
O118        O  0.95617181  0.31863215  0.54243622    -0.80800
O119        O  0.96066395  0.25964012  0.40753618    -0.80800
O120        O  0.04003288  0.26576805  0.58988367    -0.80700
O121        O  0.95789596  0.31557741  0.45046183    -0.80900
O122        O  0.04504623  0.31758171  0.54238189    -0.80800
O123        O  0.95767585  0.26589464  0.58897250    -0.80800
O124        O  0.04340651  0.25574123  0.40828735    -0.80800
C125        C  0.04957246  0.29563787  0.41322878     1.08900
C126        C  0.95256442  0.30550709  0.58082967     1.08800
C127        C  0.95669918  0.29985966  0.41280099     1.08900
C128        C  0.04543994  0.30517466  0.58129685     1.08800
O129        O  0.09046895  0.23627576  0.54318444    -0.80800
O130        O  0.90928264  0.23688829  0.45668067    -0.80800
O131        O  0.04440100  0.17732682  0.45859056    -0.80800
O132        O  0.95375534  0.18364835  0.54519801    -0.80800
O133        O  0.90912775  0.23842029  0.53929547    -0.80800
O134        O  0.09095530  0.22985999  0.46059710    -0.80800
O135        O  0.04592317  0.18253604  0.54723101    -0.80700
O136        O  0.95226686  0.18079300  0.45627503    -0.80800
Co137      Co  0.06239468  0.27393302  0.49893618     1.51500
Co138      Co  0.93900182  0.27710217  0.49735172     1.51700
Co139      Co  0.00014062  0.21879306  0.43856295     1.51600
Co140      Co  0.99945058  0.22425880  0.56198062     1.51500
O141        O  0.00024451  0.24851887  0.49920103    -1.42700
C142        C  0.08390952  0.19678924  0.54961489     1.08800
C143        C  0.91464798  0.19666800  0.45306351     1.08900
C144        C  0.08296080  0.19006920  0.45708201     1.08900
C145        C  0.91572725  0.19872377  0.54614841     1.08900
O146        O  0.04163583  0.73612818  0.41087984    -0.80800
O147        O  0.96126830  0.73469871  0.59352622    -0.80800
O148        O  0.04572668  0.68087723  0.54674779    -0.80800
O149        O  0.95650158  0.68372933  0.45535975    -0.80700
O150        O  0.04398376  0.73418367  0.59272564    -0.80900
O151        O  0.95911094  0.73880053  0.41164081    -0.80800
O152        O  0.95763623  0.68166219  0.54721736    -0.80800
O153        O  0.04499402  0.68165973  0.45540504    -0.80800
C154        C  0.04647752  0.69608254  0.41732947     1.08900
C155        C  0.95484850  0.69528193  0.58554425     1.08800
C156        C  0.04857637  0.69445167  0.58502812     1.08900
C157        C  0.95332181  0.69905714  0.41769990     1.08800
O158        O  0.95557376  0.81871546  0.45918385    -0.80800
O159        O  0.04805361  0.81569120  0.54819831    -0.80800
O160        O  0.09201254  0.76144684  0.46019066    -0.80800
O161        O  0.91149557  0.76325511  0.54501971    -0.80800
O162        O  0.95645158  0.81675439  0.54854212    -0.80800
O163        O  0.04792321  0.81665909  0.45894011    -0.80800
O164        O  0.91061836  0.76500217  0.46250730    -0.80700
O165        O  0.09297589  0.76119527  0.54310712    -0.80800
Co166      Co  0.00125209  0.77741374  0.44108132     1.51500
Co167      Co  0.00233001  0.77528680  0.56491624     1.51700
Co168      Co  0.06316113  0.72157577  0.50148732     1.51600
Co169      Co  0.93996391  0.72346132  0.50249183     1.51500
O170        O  0.00167593  0.74957010  0.50247529    -1.42700
C171        C  0.91745217  0.80466234  0.45681219     1.08800
C172        C  0.08617419  0.80097211  0.54946450     1.08900
C173        C  0.08582701  0.80152193  0.45639434     1.08900
C174        C  0.91829652  0.80300535  0.55003909     1.08900
C175        C  0.62537837  0.95212538  0.66556147    -0.04000
C176        C  0.62089749  0.94498748  0.62117513    -0.09700
C177        C  0.65730102  0.93724818  0.59559777    -0.17400
C178        C  0.69840412  0.93702869  0.61414239     0.24700
C179        C  0.70291137  0.94522680  0.65792645    -0.19100
C180        C  0.66694023  0.95257398  0.68335276    -0.08000
C181        C  0.73607656  0.92438349  0.59025873    -0.14400
C182        C  0.76918705  0.90912306  0.57681881    -0.14200
C183        C  0.80717653  0.88424587  0.56696995     0.24600
C184        C  0.80298614  0.84031362  0.56032671    -0.19600
C185        C  0.83921470  0.81441117  0.55514974    -0.08000
C186        C  0.88066841  0.83187559  0.55632472    -0.04100
C187        C  0.88484111  0.87627756  0.56230619    -0.09400
C188        C  0.84821499  0.90231893  0.56781048    -0.17100
H189        H  0.58941699  0.94470772  0.60646986     0.11100
H190        H  0.65334177  0.93058249  0.56171693     0.10400
H191        H  0.73437309  0.94488768  0.67277917     0.10300
H192        H  0.67185989  0.95829755  0.71726561     0.10800
H193        H  0.77156879  0.82582114  0.55996116     0.10900
H194        H  0.83458015  0.78046873  0.55023708     0.10900
H195        H  0.91623674  0.89071559  0.56305476     0.11000
H196        H  0.85192342  0.93629971  0.57335976     0.09800
C197        C  0.12378291  0.82876150  0.55761503    -0.04000
C198        C  0.11946247  0.87203203  0.56959345    -0.09700
C199        C  0.15605709  0.89678860  0.57765909    -0.17400
C200        C  0.19720811  0.87865050  0.57326555     0.24700
C201        C  0.20151039  0.83598886  0.56055956    -0.19100
C202        C  0.16532734  0.81127846  0.55303194    -0.08000
C203        C  0.23537138  0.90165344  0.58523443    -0.14400
C204        C  0.26901543  0.91467661  0.59919053    -0.14200
C205        C  0.30797522  0.92397987  0.62239888     0.24600
C206        C  0.30903318  0.91609008  0.66646685    -0.19600
C207        C  0.34611449  0.92374953  0.69009973    -0.08000
C208        C  0.38322181  0.93943045  0.67015222    -0.04100
C209        C  0.38249290  0.94657022  0.62558627    -0.09400
C210        C  0.34491897  0.93896770  0.60178729    -0.17100
H211        H  0.08798485  0.88644805  0.57332212     0.11100
H212        H  0.15225494  0.92972287  0.58793664     0.10400
H213        H  0.23301501  0.82143220  0.55728392     0.10300
H214        H  0.17005695  0.77824691  0.54349465     0.10800
H215        H  0.28096009  0.90403204  0.68275423     0.10900
H216        H  0.34555310  0.91767698  0.72428623     0.10900
H217        H  0.41044381  0.95902594  0.60946026     0.11000
H218        H  0.34461932  0.94491089  0.56757633     0.09800
C219        C  0.87787882  0.17165038  0.55468580    -0.04000
C220        C  0.87991426  0.12667088  0.55354231    -0.09700
C221        C  0.84271364  0.10252089  0.56025340    -0.17400
C222        C  0.80330177  0.12319492  0.56807973     0.24700
C223        C  0.80125041  0.16780817  0.56893176    -0.19100
C224        C  0.83801299  0.19177275  0.56232855    -0.08000
C225        C  0.76515943  0.09975959  0.57873382    -0.14400
C226        C  0.73213767  0.08588930  0.59305887    -0.14200
C227        C  0.69460681  0.07468075  0.61742628     0.24600
C228        C  0.65352706  0.07459573  0.59890115    -0.19600
C229        C  0.61728443  0.06712750  0.62447652    -0.08000
C230        C  0.62186629  0.06017052  0.66886375    -0.04100
C231        C  0.66335858  0.06014132  0.68681006    -0.09400
C232        C  0.69923487  0.06716253  0.66134120    -0.17100
H233        H  0.91001269  0.11030961  0.54721271     0.11100
H234        H  0.84476184  0.06791833  0.55980362     0.10400
H235        H  0.77115707  0.18422209  0.57533914     0.10300
H236        H  0.83509542  0.22630794  0.56336143     0.10800
H237        H  0.64948053  0.08081170  0.56494821     0.10900
H238        H  0.58583536  0.06713039  0.60969200     0.10900
H239        H  0.66829438  0.05452249  0.72074281     0.11000
H240        H  0.73070191  0.06742592  0.67616460     0.09800
C241        C  0.12189371  0.16911029  0.55825648    -0.04000
C242        C  0.16175146  0.18869090  0.56560383    -0.09700
C243        C  0.19890250  0.16426927  0.57102908    -0.17400
C244        C  0.19723718  0.11971571  0.56938801     0.24700
C245        C  0.15784909  0.09957215  0.56201744    -0.19100
C246        C  0.12024530  0.12418628  0.55647642    -0.08000
C247        C  0.23579978  0.09570483  0.57889323    -0.14400
C248        C  0.26912542  0.08091335  0.59231525    -0.14200
C249        C  0.30722250  0.06783052  0.61531293     0.24600
C250        C  0.30278335  0.04860011  0.65546664    -0.19600
C251        C  0.33875965  0.04046686  0.68090329    -0.08000
C252        C  0.38006117  0.05111843  0.66654727    -0.04100
C253        C  0.38459818  0.06922101  0.62553773    -0.09400
C254        C  0.34825298  0.07785900  0.60017106    -0.17100
H255        H  0.16442903  0.22318302  0.56703245     0.11100
H256        H  0.22899668  0.18025700  0.57707184     0.10400
H257        H  0.15615440  0.06499619  0.56091528     0.10300
H258        H  0.09020737  0.10825898  0.55022989     0.10800
H259        H  0.27129420  0.04093028  0.66769453     0.10900
H260        H  0.33413084  0.02606399  0.71212269     0.10900
H261        H  0.41595407  0.07781867  0.61369743     0.11000
H262        H  0.35205734  0.09323359  0.56929939     0.09800
C263        C  0.87969859  0.83246911  0.44684099    -0.04000
C264        C  0.83926595  0.81318573  0.44216264    -0.09700
C265        C  0.80303266  0.83732945  0.43156041    -0.17400
C266        C  0.80601768  0.88138855  0.42542557     0.24700
C267        C  0.84582147  0.90143062  0.43090497    -0.19100
C268        C  0.88254800  0.87706902  0.44167219    -0.08000
C269        C  0.76823560  0.90448939  0.41105169    -0.14400
C270        C  0.73499280  0.91814589  0.39606212    -0.14200
C271        C  0.69586030  0.92977897  0.37375884     0.24600
C272        C  0.69790269  0.94084087  0.33042395    -0.19600
C273        C  0.66039176  0.94858872  0.30715520    -0.08000
C274        C  0.61978603  0.94548856  0.32668730    -0.04100
C275        C  0.61782654  0.93528815  0.37055488    -0.09400
C276        C  0.65571145  0.92725469  0.39390207    -0.17100
H277        H  0.83548102  0.77903739  0.44616650     0.11100
H278        H  0.77262443  0.82133289  0.42738604     0.10400
H279        H  0.84858668  0.93560311  0.42620804     0.10300
H280        H  0.91303487  0.89292618  0.44547010     0.10800
H281        H  0.72857295  0.94275275  0.31431268     0.10900
H282        H  0.66334731  0.95682979  0.27355314     0.10900
H283        H  0.58716969  0.93283912  0.38652813     0.11000
H284        H  0.65366101  0.91842377  0.42742646     0.09800
C285        C  0.37608538  0.94580841  0.33500160    -0.04000
C286        C  0.33399283  0.94622682  0.31850330    -0.09700
C287        C  0.29905543  0.93817550  0.34494861    -0.17400
C288        C  0.30524402  0.92940400  0.38845245     0.24700
C289        C  0.34689903  0.92943678  0.40560245    -0.19100
C290        C  0.38220368  0.93776336  0.37902471    -0.08000
C291        C  0.26872355  0.91685038  0.41366096    -0.14400
C292        C  0.23630427  0.90208591  0.42843979    -0.14200
C293        C  0.19841470  0.87823731  0.43908565     0.24600
C294        C  0.15837728  0.89844197  0.44453874    -0.19600
C295        C  0.12126159  0.87389940  0.45011265    -0.08000
C296        C  0.12392828  0.82893760  0.44998326    -0.04100
C297        C  0.16449106  0.80926628  0.44510918    -0.09400
C298        C  0.20122477  0.83364989  0.43981463    -0.17100
H299        H  0.32786874  0.95264448  0.28489244     0.11100
H300        H  0.26712533  0.93797904  0.33117942     0.10400
H301        H  0.35214349  0.92235779  0.43923458     0.10300
H302        H  0.41412395  0.93750619  0.39272347     0.10800
H303        H  0.15574989  0.93300977  0.44372880     0.10900
H304        H  0.09064677  0.88996656  0.45433477     0.10900
H305        H  0.16800660  0.77476565  0.44522454     0.11000
H306        H  0.23184367  0.81757263  0.43534672     0.09800
C307        C  0.61649484  0.05584720  0.32956867    -0.04000
C308        C  0.61379478  0.05940950  0.37452732    -0.09700
C309        C  0.65049060  0.06915916  0.39895145    -0.17400
C310        C  0.69016154  0.07528872  0.37865902     0.24700
C311        C  0.69291089  0.07118676  0.33413469    -0.19100
C312        C  0.65665165  0.06158355  0.30990144    -0.08000
C313        C  0.72806818  0.08805345  0.40214956    -0.14400
C314        C  0.76129789  0.10195752  0.41643867    -0.14200
C315        C  0.80023356  0.12362015  0.42897126     0.24600
C316        C  0.84062946  0.10349907  0.42595807    -0.19600
C317        C  0.87827873  0.12654868  0.43450945    -0.08000
C318        C  0.87586461  0.17013286  0.44568625    -0.04100
C319        C  0.83501362  0.18953582  0.44942562    -0.09400
C320        C  0.79775563  0.16656045  0.44123100    -0.17100
H321        H  0.58348396  0.05485893  0.39066347     0.11100
H322        H  0.64782390  0.07236711  0.43345348     0.10400
H323        H  0.72317526  0.07598081  0.31792537     0.10300
H324        H  0.66020184  0.05896326  0.27543668     0.10800
H325        H  0.84307388  0.07027920  0.41623833     0.10900
H326        H  0.90910978  0.11063317  0.43152869     0.10900
H327        H  0.83167718  0.22286636  0.45848243     0.11000
H328        H  0.76692609  0.18266531  0.44360684     0.09800
C329        C  0.37306115  0.05253405  0.33296918    -0.04000
C330        C  0.33205394  0.05849580  0.31474909    -0.09700
C331        C  0.29575549  0.06197815  0.34054867    -0.17400
C332        C  0.29943224  0.05960619  0.38514838     0.24700
C333        C  0.34000082  0.05345368  0.40388656    -0.19100
C334        C  0.37669057  0.04989172  0.37791587    -0.08000
C335        C  0.26166948  0.06768199  0.41073364    -0.14400
C336        C  0.22881199  0.08102457  0.42655208    -0.14200
C337        C  0.19165239  0.10582609  0.43922905     0.24600
C338        C  0.19717818  0.14906427  0.44876785    -0.19600
C339        C  0.16174655  0.17583852  0.45481589    -0.08000
C340        C  0.11975634  0.15993144  0.45174099    -0.04100
C341        C  0.11423155  0.11598936  0.44375074    -0.09400
C342        C  0.15007637  0.08908481  0.43725473    -0.17100
H343        H  0.32785201  0.06047733  0.28030340     0.11100
H344        H  0.26473040  0.06720319  0.32561385     0.10400
H345        H  0.34333253  0.05191669  0.43845759     0.10300
H346        H  0.40767326  0.04473071  0.39285530     0.10800
H347        H  0.22904307  0.16251594  0.45018979     0.10900
H348        H  0.16740522  0.20930135  0.46154716     0.10900
H349        H  0.08237451  0.10270235  0.44161087     0.11000
H350        H  0.14534225  0.05566164  0.42957299     0.09800
C351        C  0.54647335  0.87779055  0.16678178    -0.04000
C352        C  0.53979020  0.83672074  0.18406136    -0.09700
C353        C  0.54913779  0.79994684  0.16041820    -0.17400
C354        C  0.56567046  0.80313884  0.11899324     0.24700
C355        C  0.57134002  0.84379311  0.10071463    -0.19100
C356        C  0.56147488  0.88101434  0.12439353    -0.08000
C357        C  0.58030611  0.76451032  0.09775351    -0.14400
C358        C  0.59594623  0.73101296  0.08570066    -0.14200
C359        C  0.62023424  0.69238339  0.07671024     0.24600
C360        C  0.60037992  0.65436352  0.06360380    -0.19600
C361        C  0.62504606  0.61707860  0.05644298    -0.08000
C362        C  0.66978878  0.61765679  0.06218130    -0.04100
C363        C  0.68906679  0.65593549  0.07574383    -0.09400
C364        C  0.66456841  0.69276335  0.08295007    -0.17100
H365        H  0.52780364  0.83282958  0.21638955     0.11100
H366        H  0.54465601  0.76888210  0.17507155     0.10400
H367        H  0.58440954  0.84673039  0.06870274     0.10300
H368        H  0.56690368  0.91207942  0.11017879     0.10800
H369        H  0.56599578  0.65356229  0.05884953     0.10900
H370        H  0.60939571  0.58826886  0.04552457     0.10900
H371        H  0.72340275  0.65760688  0.08056590     0.11000
H372        H  0.68034691  0.72170460  0.09343066     0.09800
C373        C  0.55035838  0.12124720  0.16918803    -0.04000
C374        C  0.56235963  0.11691399  0.12592123    -0.09700
C375        C  0.57308182  0.15320041  0.10175458    -0.17400
C376        C  0.57144589  0.19405084  0.12053282     0.24700
C377        C  0.55855057  0.19850027  0.16316503    -0.19100
C378        C  0.54818893  0.16257263  0.18725922    -0.08000
C379        C  0.58559272  0.23148217  0.09776187    -0.14400
C380        C  0.60032185  0.26403353  0.08336715    -0.14200
C381        C  0.62276537  0.30194451  0.07023187     0.24600
C382        C  0.60505861  0.34293841  0.07658249    -0.19600
C383        C  0.62920157  0.37950960  0.06741158    -0.08000
C384        C  0.67148844  0.37527412  0.05236200    -0.04100
C385        C  0.68846278  0.33389423  0.04542666    -0.09400
C386        C  0.66429285  0.29768196  0.05409486    -0.17100
H387        H  0.56421771  0.08559610  0.11110713     0.11100
H388        H  0.58328447  0.14934491  0.06877168     0.10400
H389        H  0.55725672  0.22980429  0.17813602     0.10300
H390        H  0.53867562  0.16729445  0.22033584     0.10800
H391        H  0.57297817  0.34662836  0.08940291     0.10900
H392        H  0.61527329  0.41087071  0.07302627     0.10900
H393        H  0.72075587  0.32934160  0.03344133     0.11000
H394        H  0.67844277  0.26626662  0.04914421     0.09800
C395        C  0.66589908  0.62126774  0.95180376    -0.04000
C396        C  0.68155821  0.66254104  0.96027591    -0.09700
C397        C  0.65687654  0.69883718  0.95114175    -0.17400
C398        C  0.61608197  0.69483818  0.93313257     0.24700
C399        C  0.59921339  0.65387685  0.92624486    -0.19100
C400        C  0.62390930  0.61718928  0.93584752    -0.08000
C401        C  0.59450947  0.73296354  0.91763461    -0.14400
C402        C  0.58285054  0.76623674  0.90135940    -0.14200
C403        C  0.57486268  0.80496071  0.87715259     0.24600
C404        C  0.57740851  0.80335631  0.83244517    -0.19600
C405        C  0.57204063  0.84050588  0.80818638    -0.08000
C406        C  0.56368055  0.88026375  0.82808605    -0.04100
C407        C  0.56153648  0.88188240  0.87314299    -0.09400
C408        C  0.56716283  0.84439079  0.89754855    -0.17100
H409        H  0.71344285  0.66692796  0.97326767     0.11100
H410        H  0.67036566  0.73019053  0.95665653     0.10400
H411        H  0.56768015  0.65030537  0.91215848     0.10300
H412        H  0.61087764  0.58586877  0.92928032     0.10800
H413        H  0.58374677  0.77326532  0.81620705     0.10900
H414        H  0.57388909  0.83786873  0.77359392     0.10900
H415        H  0.55486083  0.91185769  0.88938082     0.11000
H416        H  0.56554020  0.84615582  0.93221161     0.09800
C417        C  0.66804862  0.37909751  0.94305167    -0.04000
C418        C  0.62307573  0.38302725  0.94124789    -0.09700
C419        C  0.59763296  0.34667832  0.93446367    -0.17400
C420        C  0.61689658  0.30611895  0.92977326     0.24700
C421        C  0.66147133  0.30218412  0.93180286    -0.19100
C422        C  0.68674218  0.33815136  0.93820757    -0.08000
C423        C  0.59222139  0.26845186  0.91984335    -0.14400
C424        C  0.57711182  0.23538392  0.90678782    -0.14200
C425        C  0.56436178  0.19729658  0.88390346     0.24600
C426        C  0.56892945  0.15630027  0.90194742    -0.19600
C427        C  0.56169953  0.11960734  0.87679507    -0.08000
C428        C  0.55028196  0.12369815  0.83326939    -0.04100
C429        C  0.54450946  0.16510553  0.81617445    -0.09400
C430        C  0.55144313  0.20135610  0.84119417    -0.17100
H431        H  0.60769931  0.41399663  0.94505892     0.11100
H432        H  0.56309981  0.35025440  0.93254202     0.10400
H433        H  0.67686589  0.27119025  0.92790946     0.10300
H434        H  0.72119083  0.33367069  0.93957383     0.10800
H435        H  0.57916001  0.15268838  0.93498727     0.10900
H436        H  0.56600904  0.08825457  0.89100325     0.10900
H437        H  0.53511916  0.16969588  0.78301743     0.11000
H438        H  0.54793515  0.23271726  0.82671723     0.09800
C439        C  0.82821810  0.55714274  0.87898167    -0.04000
C440        C  0.87325272  0.55411715  0.88044591    -0.09700
C441        C  0.89751192  0.56000780  0.84294150    -0.17400
C442        C  0.87690900  0.56881455  0.80376314     0.24700
C443        C  0.83227452  0.57211199  0.80238688    -0.19100
C444        C  0.80820611  0.56649287  0.83948851    -0.08000
C445        C  0.90054397  0.57777212  0.76508607    -0.14400
C446        C  0.91445824  0.59129042  0.73163325    -0.14200
C447        C  0.92539001  0.61587684  0.69410134     0.24600
C448        C  0.93683182  0.59653023  0.65501045    -0.19600
C449        C  0.94579868  0.62195770  0.61893955    -0.08000
C450        C  0.94364399  0.66688819  0.62190467    -0.04100
C451        C  0.93167284  0.68561890  0.66123192    -0.09400
C452        C  0.92255572  0.66040440  0.69678545    -0.17100
H453        H  0.88954642  0.54662826  0.91026394     0.11100
H454        H  0.93214893  0.55784300  0.84451918     0.10400
H455        H  0.81593398  0.57936933  0.77249816     0.10300
H456        H  0.77364650  0.56904734  0.83701769     0.10800
H457        H  0.93878213  0.56200088  0.65240722     0.10900
H458        H  0.95505906  0.60664980  0.58914323     0.10900
H459        H  0.92926349  0.72004755  0.66466620     0.11000
H460        H  0.91318967  0.67578342  0.72655842     0.09800
C461        C  0.83361932  0.55131088  0.12191933    -0.04000
C462        C  0.81665562  0.54814237  0.16365911    -0.09700
C463        C  0.84131370  0.55818979  0.19950609    -0.17400
C464        C  0.88343993  0.57191028  0.19465177     0.24700
C465        C  0.90117595  0.57465577  0.15335845    -0.19100
C466        C  0.87643705  0.56415258  0.11709333    -0.08000
C467        C  0.90631331  0.58617082  0.23227611    -0.14400
C468        C  0.91936658  0.60123820  0.26550045    -0.14200
C469        C  0.92905106  0.62459746  0.30424857     0.24600
C470        C  0.93965168  0.60364561  0.34274255    -0.19600
C471        C  0.94678296  0.62740755  0.38039108    -0.08000
C472        C  0.94343777  0.67230905  0.37968379    -0.04100
C473        C  0.93251012  0.69274027  0.34085172    -0.09400
C474        C  0.92537116  0.66913663  0.30364408    -0.17100
H475        H  0.78393080  0.53816960  0.16880638     0.11100
H476        H  0.82707670  0.55615006  0.23112406     0.10400
H477        H  0.93371767  0.58563128  0.14915714     0.10300
H478        H  0.89038786  0.56695400  0.08545465     0.10800
H479        H  0.94228457  0.56907710  0.34367664     0.10900
H480        H  0.95554020  0.61086535  0.40967839     0.10900
H481        H  0.92951664  0.72725072  0.33906398     0.11000
H482        H  0.91673612  0.68573350  0.27430986     0.09800
C483        C  0.82911914  0.44978307  0.87401100    -0.04000
C484        C  0.81200035  0.46020325  0.83341486    -0.09700
C485        C  0.83616678  0.45459523  0.79622157    -0.17400
C486        C  0.87774081  0.43782055  0.79860399     0.24700
C487        C  0.89549606  0.42775412  0.83885671    -0.19100
C488        C  0.87143988  0.43406978  0.87647055    -0.06800
C489        C  0.89972850  0.42678662  0.75933574    -0.14400
C490        C  0.91354560  0.41247964  0.72601963    -0.14200
C491        C  0.92553157  0.38739192  0.68894077     0.24600
C492        C  0.93048816  0.40564112  0.64809339    -0.19600
C493        C  0.93929701  0.37941725  0.61235532    -0.08000
C494        C  0.94287947  0.33474732  0.61727105    -0.04100
C495        C  0.93798057  0.31716128  0.65854657    -0.09400
C496        C  0.92956442  0.34317651  0.69386068    -0.17100
H497        H  0.77967955  0.47279409  0.83028345     0.11100
H498        H  0.82189804  0.46228365  0.76540350     0.10400
H499        H  0.92750350  0.41417581  0.84108328     0.10300
H500        H  0.88544982  0.42569387  0.90719249     0.10800
H501        H  0.92715036  0.43990288  0.64381439     0.10900
H502        H  0.94316070  0.39392870  0.58109549     0.10900
H503        H  0.94070768  0.28299593  0.66379517     0.11000
H504        H  0.92559700  0.32859829  0.72511774     0.09800
C505        C  0.83562574  0.43955682  0.11702891    -0.04000
C506        C  0.81923850  0.44129740  0.15908632    -0.09700
C507        C  0.84544130  0.43285143  0.19435013    -0.17400
C508        C  0.88855438  0.42207999  0.18854089     0.24700
C509        C  0.90552995  0.42018067  0.14687419    -0.19100
C510        C  0.87922702  0.42915958  0.11121155    -0.08000
C511        C  0.91357027  0.41018850  0.22571772    -0.14400
C512        C  0.92833584  0.39671224  0.25897208    -0.14200
C513        C  0.93963214  0.37439309  0.29791978     0.24600
C514        C  0.94664028  0.33029752  0.29585218    -0.19600
C515        C  0.95234407  0.30669386  0.33329692    -0.08000
C516        C  0.95127884  0.32668651  0.37385622    -0.04100
C517        C  0.94543797  0.37131940  0.37585472    -0.09400
C518        C  0.93941442  0.39505612  0.33797606    -0.17100
H519        H  0.78591879  0.44935679  0.16496066     0.11100
H520        H  0.83179766  0.43410826  0.22628381     0.10400
H521        H  0.93882713  0.41135147  0.14194455     0.10300
H522        H  0.89274593  0.42746693  0.07928424     0.10800
H523        H  0.94660749  0.31386190  0.26520655     0.10900
H524        H  0.95725913  0.27247399  0.33030342     0.10900
H525        H  0.94485410  0.38764297  0.40651350     0.11000
H526        H  0.93366400  0.42923292  0.33998043     0.09800
C527        C  0.33033383  0.62301221  0.94255861    -0.04000
C528        C  0.37518155  0.61957245  0.93847470    -0.09700
C529        C  0.39970589  0.65601488  0.92931688    -0.17400
C530        C  0.37967324  0.69617573  0.92429749     0.24700
C531        C  0.33518832  0.69956971  0.92813773    -0.19100
C532        C  0.31082363  0.66352221  0.93709494    -0.08000
C533        C  0.40361718  0.73404023  0.91339883    -0.14400
C534        C  0.41928647  0.76704280  0.90096643    -0.14200
C535        C  0.43435588  0.80533881  0.88008461     0.24600
C536        C  0.42520586  0.84628925  0.89660553    -0.19600
C537        C  0.43535772  0.88303031  0.87279216    -0.08000
C538        C  0.45403063  0.87901133  0.83193211    -0.04100
C539        C  0.46421151  0.83777615  0.81649842    -0.09400
C540        C  0.45475907  0.80144817  0.84043662    -0.17100
H541        H  0.39118412  0.58894649  0.94249511     0.11100
H542        H  0.43416325  0.65284644  0.92604161     0.10400
H543        H  0.31916985  0.73021658  0.92398633     0.10300
H544        H  0.27642046  0.66757842  0.93984379     0.10800
H545        H  0.40914396  0.84977717  0.92719671     0.10900
H546        H  0.42713160  0.91430624  0.88551428     0.10900
H547        H  0.47897721  0.83344062  0.78537034     0.11000
H548        H  0.46203111  0.77012572  0.82720279     0.09800
C549        C  0.33207154  0.38050358  0.93999728    -0.04000
C550        C  0.37705185  0.38353672  0.93894820    -0.09700
C551        C  0.40252660  0.34666450  0.93258249    -0.17400
C552        C  0.38319899  0.30658391  0.92744194     0.24700
C553        C  0.33862384  0.30356721  0.92875052    -0.19100
C554        C  0.31335670  0.33998722  0.93491162    -0.08000
C555        C  0.40762785  0.26845137  0.91733627    -0.14400
C556        C  0.42088092  0.23469556  0.90353220    -0.14200
C557        C  0.42934760  0.19599658  0.87956097     0.24600
C558        C  0.42259212  0.19669929  0.83526900    -0.19600
C559        C  0.42864764  0.15976457  0.81092404    -0.08000
C560        C  0.44159399  0.12107192  0.83032878    -0.04100
C561        C  0.44766465  0.12014598  0.87509206    -0.09400
C562        C  0.44163442  0.15755445  0.89961675    -0.17100
H563        H  0.39239506  0.41417378  0.94314707     0.11100
H564        H  0.43707982  0.34947055  0.93125270     0.10400
H565        H  0.32322028  0.27293463  0.92439172     0.10300
H566        H  0.27889526  0.33621623  0.93567392     0.10800
H567        H  0.41252205  0.22597926  0.81940765     0.10900
H568        H  0.42349515  0.16170241  0.77659955     0.10900
H569        H  0.45802336  0.09095757  0.89084470     0.11000
H570        H  0.44658259  0.15650791  0.93401475     0.09800
C571        C  0.32999135  0.61965425  0.05375703    -0.04000
C572        C  0.37251512  0.61574073  0.06834244    -0.09700
C573        C  0.39643814  0.65256291  0.07738535    -0.17400
C574        C  0.37818627  0.69337746  0.07120594     0.24700
C575        C  0.33653499  0.69722662  0.05523373    -0.19100
C576        C  0.31263532  0.66085046  0.04674094    -0.08000
C577        C  0.39976714  0.73163094  0.08478333    -0.14400
C578        C  0.41201479  0.76504564  0.09962599    -0.14200
C579        C  0.42159771  0.80354372  0.12310565     0.24600
C580        C  0.42395148  0.80140131  0.16774982    -0.19600
C581        C  0.43105777  0.83823772  0.19174095    -0.08000
C582        C  0.43621796  0.87820790  0.17159279    -0.04100
C583        C  0.43362114  0.88037118  0.12658491    -0.09400
C584        C  0.42621666  0.84312581  0.10243614    -0.17100
H585        H  0.38670564  0.58446646  0.07392545     0.11100
H586        H  0.42863267  0.64923059  0.09009770     0.10400
H587        H  0.32197910  0.72850803  0.05044410     0.10300
H588        H  0.28019740  0.66513059  0.03495480     0.10800
H589        H  0.42002261  0.77114044  0.18416927     0.10900
H590        H  0.43282327  0.83518376  0.22630757     0.10900
H591        H  0.43761757  0.91057904  0.11018134     0.11000
H592        H  0.42399401  0.84519824  0.06781016     0.09800
C593        C  0.33204799  0.37697141  0.04861345    -0.04000
C594        C  0.31392064  0.33595934  0.05128746    -0.09700
C595        C  0.33945119  0.29994610  0.05916376    -0.17400
C596        C  0.38370785  0.30391804  0.06444635     0.24700
C597        C  0.40245615  0.34441968  0.06096559    -0.19100
C598        C  0.37676158  0.38081061  0.05299226    -0.08000
C599        C  0.40829640  0.26655412  0.07710680    -0.14400
C600        C  0.42265197  0.23385477  0.09240280    -0.14200
C601        C  0.43280307  0.19599910  0.11717305     0.24600
C602        C  0.43323906  0.19923935  0.16185593    -0.19600
C603        C  0.43779878  0.16269906  0.18710948    -0.08000
C604        C  0.44214735  0.12184961  0.16829615    -0.04100
C605        C  0.44272425  0.11872620  0.12323885    -0.09400
C606        C  0.43795958  0.15567080  0.09780320    -0.17100
H607        H  0.27969021  0.33157339  0.04780247     0.11100
H608        H  0.32444440  0.26897409  0.06204826     0.10400
H609        H  0.43670707  0.34798856  0.06520543     0.10300
H610        H  0.39171741  0.41181635  0.05063248     0.10800
H611        H  0.42903869  0.23006236  0.17732666     0.10900
H612        H  0.43763483  0.16659358  0.22164445     0.10900
H613        H  0.44670472  0.08790969  0.10779211     0.11000
H614        H  0.43747674  0.15268367  0.06317331     0.09800
C615        C  0.05678409  0.66538272  0.62165380    -0.04000
C616        C  0.06498009  0.68321257  0.66230937    -0.09700
C617        C  0.07160594  0.65709587  0.69783679    -0.17400
C618        C  0.07005984  0.61268848  0.69367357     0.24700
C619        C  0.06187444  0.59428725  0.65343124    -0.19100
C620        C  0.05527647  0.62060144  0.61746089    -0.08000
C621        C  0.08033208  0.58717340  0.73071094    -0.14400
C622        C  0.09469694  0.57342334  0.76391962    -0.14200
C623        C  0.11920947  0.56530205  0.80221818     0.24600
C624        C  0.09939463  0.55864643  0.84198873    -0.19600
C625        C  0.12436544  0.55450857  0.87932919    -0.08000
C626        C  0.16926295  0.55695929  0.87699840    -0.04100
C627        C  0.18855101  0.56398601  0.83682091    -0.09400
C628        C  0.16374581  0.56810633  0.79990470    -0.17100
H629        H  0.06649395  0.71750604  0.66677389     0.11100
H630        H  0.07848848  0.67167331  0.72866597     0.10400
H631        H  0.06100745  0.55985911  0.64981985     0.10300
H632        H  0.04869646  0.60603530  0.58660919     0.10800
H633        H  0.06482447  0.55695822  0.84415325     0.10900
H634        H  0.10871424  0.54873774  0.90973368     0.10900
H635        H  0.22301890  0.56617029  0.83373121     0.11000
H636        H  0.17939505  0.57398692  0.76947184     0.09800
C637        C  0.05340865  0.66761981  0.37949279    -0.04000
C638        C  0.05075355  0.68521054  0.33796524    -0.09700
C639        C  0.05808029  0.66002501  0.30166901    -0.17400
C640        C  0.06832178  0.61661222  0.30577040     0.24700
C641        C  0.07018379  0.59825706  0.34691081    -0.19100
C642        C  0.06257002  0.62357964  0.38360655    -0.08000
C643        C  0.08032912  0.59285640  0.26757671    -0.14400
C644        C  0.09440724  0.57867495  0.23417198    -0.14200
C645        C  0.11781358  0.56689517  0.19570630     0.24600
C646        C  0.16172915  0.55857304  0.19914299    -0.19600
C647        C  0.18637961  0.55137358  0.16251669    -0.08000
C648        C  0.16774739  0.55189811  0.12124257    -0.04100
C649        C  0.12328458  0.55945748  0.11780852    -0.09400
C650        C  0.09849129  0.56712533  0.15487320    -0.17100
H651        H  0.04329865  0.71880519  0.33334492     0.11100
H652        H  0.05667558  0.67477624  0.27024489     0.10400
H653        H  0.07830563  0.56468991  0.35067870     0.10300
H654        H  0.06452339  0.60896004  0.41503598     0.10800
H655        H  0.17726193  0.55851562  0.23028557     0.10900
H656        H  0.22038119  0.54543918  0.16673851     0.10900
H657        H  0.10787807  0.55993341  0.08664560     0.11000
H658        H  0.06451821  0.57388834  0.15162508     0.09800
C659        C  0.05145194  0.33495421  0.61807524    -0.04000
C660        C  0.04505549  0.31939030  0.65999220    -0.09700
C661        C  0.05190776  0.34525849  0.69570147    -0.17400
C662        C  0.06576150  0.38723338  0.69061591     0.24700
C663        C  0.07121685  0.40376128  0.64906792    -0.19100
C664        C  0.06377128  0.37781825  0.61287141    -0.08000
C665        C  0.07871988  0.41064003  0.72842324    -0.14400
C666        C  0.09391272  0.42378219  0.76160291    -0.14200
C667        C  0.11849304  0.43359155  0.79967771     0.24600
C668        C  0.16316106  0.43334001  0.79684860    -0.19600
C669        C  0.18818418  0.44047779  0.83322708    -0.08000
C670        C  0.16911241  0.44782531  0.87352350    -0.04100
C671        C  0.12408345  0.44770267  0.87643046    -0.09400
C672        C  0.09888341  0.44072213  0.83961516    -0.17100
H673        H  0.03500209  0.28678631  0.66543751     0.11100
H674        H  0.04769432  0.33194362  0.72749342     0.10400
H675        H  0.08228333  0.43619877  0.64468297     0.10300
H676        H  0.06873257  0.39081432  0.58110279     0.10800
H677        H  0.17879808  0.42730997  0.76638492     0.10900
H678        H  0.22270696  0.44010157  0.82967501     0.10900
H679        H  0.10844885  0.45350208  0.90690125     0.11000
H680        H  0.06428096  0.44065212  0.84234271     0.09800
C681        C  0.16878951  0.44285092  0.11676214    -0.04000
C682        C  0.12541485  0.43163100  0.11266246    -0.09700
C683        C  0.10126982  0.42159079  0.14933155    -0.17400
C684        C  0.12016052  0.42329347  0.19027612     0.24700
C685        C  0.16269165  0.43602801  0.19443863    -0.19100
C686        C  0.18676890  0.44549991  0.15819944    -0.08000
C687        C  0.09814737  0.40848238  0.22807115    -0.14400
C688        C  0.08548580  0.39282533  0.26109118    -0.14200
C689        C  0.07516313  0.36950672  0.29963820     0.24600
C690        C  0.07146116  0.39021561  0.33947073    -0.19600
C691        C  0.06350773  0.36647822  0.37683443    -0.08000
C692        C  0.05936204  0.32174173  0.37470224    -0.04100
C693        C  0.06331165  0.30144147  0.33447997    -0.09400
C694        C  0.07109746  0.32509197  0.29742373    -0.17100
H695        H  0.11061412  0.42955255  0.08128269     0.11100
H696        H  0.06832652  0.41156280  0.14568169     0.10400
H697        H  0.17775190  0.43748280  0.22577636     0.10300
H698        H  0.21986507  0.45460077  0.16280710     0.10800
H699        H  0.07491415  0.42459596  0.34167651     0.10900
H700        H  0.06042450  0.38305174  0.40721708     0.10900
H701        H  0.06019377  0.26709627  0.33147606     0.11000
H702        H  0.07423232  0.30859644  0.26696288     0.09800
loop_ 
_geom_bond_atom_site_label_1 
_geom_bond_atom_site_label_2 
_geom_bond_distance 
_geom_bond_site_symmetry_2 
_ccdc_geom_bond_type 
O1            C9   1.271       .  A
O1          Co21   1.990   1_554  S
O2           C10   1.271       .  A
O2          Co22   1.986       .  S
O3           C11   1.274       .  A
O3          Co23   2.021       .  S
O4           C12   1.275       .  A
O4          Co24   2.024       .  S
O5           C11   1.274       .  A
O5          Co22   1.995   1_554  S
O6           C12   1.271       .  A
O6          Co21   1.986       .  S
O7           C10   1.270       .  A
O7          Co24   2.009       .  S
O8            C9   1.271       .  A
O8          Co23   2.011       .  S
C9          C681   1.486       .  S
C10         C626   1.480       .  S
C11         C648   1.493       .  S
C12         C670   1.487       .  S
O13          C26   1.272       .  A
O13         Co21   2.016       .  S
O14          C27   1.270       .  A
O14         Co22   2.008   1_554  S
O15          C28   1.272       .  A
O15         Co23   1.987       .  S
O16          C29   1.272       .  A
O16         Co24   1.989       .  S
O17          C29   1.275       .  A
O17         Co22   2.025       .  S
O18          C28   1.274       .  A
O18         Co21   2.019   1_554  S
O19          C26   1.271       .  A
O19         Co24   1.987       .  S
O20          C27   1.271       .  A
O20         Co23   1.987       .  S
Co21         O25   2.103       .  S
Co22         O25   2.102       .  S
Co23         O25   2.100   1_554  S
Co24         O25   2.104       .  S
C26         C549   1.485       .  S
C27         C571   1.481       .  S
C28         C593   1.487       .  S
C29         C527   1.490       .  S
O30          C38   1.273       .  A
O30         Co50   2.016       .  S
O31          C39   1.273       .  A
O31         Co51   2.019       .  S
O32          C40   1.271       .  A
O32         Co52   1.986       .  S
O33          C41   1.272       .  A
O33         Co53   1.988       .  S
O34          C40   1.272       .  A
O34         Co51   2.018       .  S
O35          C41   1.273       .  A
O35         Co50   2.015       .  S
O36          C39   1.271       .  A
O36         Co53   1.987   1_556  S
O37          C38   1.271       .  A
O37         Co52   1.986   1_554  S
C38         C505   1.485       .  S
C39         C439   1.485       .  S
C40         C483   1.485       .  S
C41         C461   1.486       .  S
O42          C55   1.272       .  A
O42         Co50   1.991       .  S
O43          C56   1.271       .  A
O43         Co51   1.989       .  S
O44          C57   1.272       .  A
O44         Co52   2.015   1_554  S
O45          C58   1.274       .  A
O45         Co53   2.020   1_556  S
O46          C58   1.271       .  A
O46         Co51   1.985       .  S
O47          C57   1.271       .  A
O47         Co50   1.984       .  S
O48          C55   1.272       .  A
O48         Co53   2.016       .  S
O49          C56   1.273       .  A
O49         Co52   2.019       .  S
Co50         O54   2.101   1_554  S
Co51         O54   2.103       .  S
Co52         O54   2.105       .  S
Co53         O54   2.104   1_554  S
C55         C362   1.485       .  S
C56         C417   1.488       .  S
C57         C384   1.484       .  S
C58         C395   1.486       .  S
O59          C67   1.272       .  A
O59         Co79   1.992       .  S
O60          C68   1.273       .  A
O60         Co80   1.994       .  S
O61          C69   1.275       .  A
O61         Co81   2.023   1_565  S
O62          C70   1.275       .  A
O62         Co82   2.021   1_545  S
O63          C69   1.273       .  A
O63         Co80   1.983       .  S
O64          C70   1.272       .  A
O64         Co79   1.988       .  S
O65          C68   1.270       .  A
O65         Co82   2.009       .  S
O66          C67   1.271       .  A
O66         Co81   2.016       .  S
C67         C329   1.487       .  S
C68         C274   1.487       .  S
C69         C285   1.486       .  S
C70         C307   1.489       .  S
O71          C84   1.272       .  A
O71         Co79   2.015       .  S
O72          C85   1.271       .  A
O72         Co80   2.011       .  S
O73          C86   1.273       .  A
O73         Co81   1.994       .  S
O74          C87   1.274       .  A
O74         Co82   1.995       .  S
O75          C87   1.273       .  A
O75         Co80   2.014       .  S
O76          C86   1.273       .  A
O76         Co79   2.018       .  S
O77          C84   1.272       .  A
O77         Co82   1.986   1_545  S
O78          C85   1.272       .  A
O78         Co81   1.989   1_565  S
Co79         O83   2.101   1_545  S
Co80         O83   2.100       .  S
Co81         O83   2.103   1_545  S
Co82         O83   2.104       .  S
C84         C373   1.485       .  S
C85         C582   1.484       .  S
C86         C604   1.489       .  S
C87         C351   1.488       .  S
O88          C96   1.275       .  A
O88        Co108   2.022   1_545  S
O89          C97   1.275       .  A
O89        Co109   2.021   1_565  S
O90          C98   1.270       .  A
O90        Co110   1.986       .  S
O91          C99   1.270       .  A
O91        Co111   1.990       .  S
O92          C98   1.271       .  A
O92        Co109   2.017       .  S
O93          C99   1.271       .  A
O93        Co108   2.014       .  S
O94          C97   1.272       .  A
O94        Co111   1.986       .  S
O95          C96   1.271       .  A
O95        Co110   1.979       .  S
C96         C252   1.483       .  S
C97         C175   1.487       .  S
C98         C230   1.486       .  S
C99         C208   1.484       .  S
O100        C113   1.272       .  A
O100       Co108   1.983       .  S
O101        C114   1.273       .  A
O101       Co109   1.990       .  S
O102        C115   1.271       .  A
O102       Co110   2.015       .  S
O103        C116   1.270       .  A
O103       Co111   2.015       .  S
O104        C116   1.272       .  A
O104       Co109   1.994   1_565  S
O105        C115   1.270       .  A
O105       Co108   1.990   1_545  S
O106        C113   1.275       .  A
O106       Co111   2.022       .  S
O107        C114   1.274       .  A
O107       Co110   2.017       .  S
Co108       O112   2.104   1_565  S
Co109       O112   2.103       .  S
Co110       O112   2.102       .  S
Co111       O112   2.102   1_565  S
C113        C538   1.486       .  S
C114        C428   1.488       .  S
C115        C560   1.485       .  S
C116        C406   1.488       .  S
O117        C125   1.271       .  A
O117       Co137   1.984       .  S
O118        C126   1.271       .  A
O118       Co138   1.988       .  S
O119        C127   1.272       .  A
O119       Co139   2.012   1_655  S
O120        C128   1.274       .  A
O120       Co140   2.017   1_455  S
O121        C127   1.272       .  A
O121       Co138   1.988       .  S
O122        C128   1.274       .  A
O122       Co137   1.993       .  S
O123        C126   1.272       .  A
O123       Co140   2.017       .  S
O124        C125   1.273       .  A
O124       Co139   2.021       .  S
C125        C692   1.486       .  S
C126        C494   1.486       .  S
C127        C516   1.484       .  S
C128        C659   1.488       .  S
O129        C142   1.269       .  A
O129       Co137   2.008       .  S
O130        C143   1.271       .  A
O130       Co138   2.015       .  S
O131        C144   1.272       .  A
O131       Co139   1.984       .  S
O132        C145   1.272       .  A
O132       Co140   1.987       .  S
O133        C145   1.274       .  A
O133       Co138   2.018       .  S
O134        C144   1.275       .  A
O134       Co137   2.024       .  S
O135        C142   1.272       .  A
O135       Co140   1.994   1_455  S
O136        C143   1.273       .  A
O136       Co139   1.997   1_655  S
Co137       O141   2.103       .  S
Co138       O141   2.102   1_655  S
Co139       O141   2.105       .  S
Co140       O141   2.099   1_655  S
C142        C241   1.484       .  S
C143        C318   1.491       .  S
C144        C340   1.487       .  S
C145        C219   1.484       .  S
O146        C154   1.275       .  A
O146       Co166   2.027       .  S
O147        C155   1.274       .  A
O147       Co167   2.021   1_655  S
O148        C156   1.269       .  A
O148       Co168   1.981       .  S
O149        C157   1.271       .  A
O149       Co169   1.988       .  S
O150        C156   1.271       .  A
O150       Co167   2.013       .  S
O151        C157   1.271       .  A
O151       Co166   2.012   1_655  S
O152        C155   1.270       .  A
O152       Co169   1.985       .  S
O153        C154   1.271       .  A
O153       Co168   1.986       .  S
C154        C637   1.491       .  S
C155        C450   1.485       .  S
C156        C615   1.480       .  S
C157        C472   1.483       .  S
O158        C171   1.274       .  A
O158       Co166   1.995   1_655  S
O159        C172   1.271       .  A
O159       Co167   1.985       .  S
O160        C173   1.271       .  A
O160       Co168   2.013       .  S
O161        C174   1.272       .  A
O161       Co169   2.018       .  S
O162        C174   1.271       .  A
O162       Co167   1.987   1_655  S
O163        C173   1.272       .  A
O163       Co166   1.991       .  S
O164        C171   1.273       .  A
O164       Co169   2.013       .  S
O165        C172   1.274       .  A
O165       Co168   2.023       .  S
Co166       O170   2.103       .  S
Co167       O170   2.105       .  S
Co168       O170   2.100       .  S
Co169       O170   2.099   1_655  S
C171        C263   1.489       .  S
C172        C197   1.488       .  S
C173        C296   1.486       .  S
C174        C186   1.486       .  S
C175        C176   1.408       .  A
C175        C180   1.409       .  A
C176        C177   1.408       .  A
C176        H189   1.083       .  S
C177        C178   1.405       .  A
C177        H190   1.083       .  S
C178        C179   1.395       .  A
C178        C181   1.444       .  S
C179        C180   1.392       .  A
C179        H191   1.084       .  S
C180        H192   1.082       .  S
C181        C182   1.209       .  T
C182        C183   1.444       .  S
C183        C184   1.396       .  A
C183        C188   1.405       .  A
C184        C185   1.393       .  A
C184        H193   1.084       .  S
C185        C186   1.409       .  A
C185        H194   1.083       .  S
C186        C187   1.407       .  A
C187        C188   1.407       .  A
C187        H195   1.083       .  S
C188        H196   1.083       .  S
C197        C198   1.408       .  A
C197        C202   1.409       .  A
C198        C199   1.408       .  A
C198        H211   1.083       .  S
C199        C200   1.405       .  A
C199        H212   1.083       .  S
C200        C201   1.396       .  A
C200        C203   1.445       .  S
C201        C202   1.393       .  A
C201        H213   1.084       .  S
C202        H214   1.083       .  S
C203        C204   1.209       .  T
C204        C205   1.445       .  S
C205        C206   1.396       .  A
C205        C210   1.405       .  A
C206        C207   1.392       .  A
C206        H215   1.084       .  S
C207        C208   1.408       .  A
C207        H216   1.083       .  S
C208        C209   1.407       .  A
C209        C210   1.408       .  A
C209        H217   1.083       .  S
C210        H218   1.082       .  S
C219        C220   1.407       .  A
C219        C224   1.409       .  A
C220        C221   1.407       .  A
C220        H233   1.083       .  S
C221        C222   1.405       .  A
C221        H234   1.083       .  S
C222        C223   1.395       .  A
C222        C225   1.443       .  S
C223        C224   1.392       .  A
C223        H235   1.084       .  S
C224        H236   1.083       .  S
C225        C226   1.208       .  T
C226        C227   1.443       .  S
C227        C228   1.404       .  A
C227        C232   1.396       .  A
C228        C229   1.406       .  A
C228        H237   1.083       .  S
C229        C230   1.407       .  A
C229        H238   1.083       .  S
C230        C231   1.409       .  A
C231        C232   1.393       .  A
C231        H239   1.083       .  S
C232        H240   1.084       .  S
C241        C242   1.409       .  A
C241        C246   1.407       .  A
C242        C243   1.391       .  A
C242        H255   1.083       .  S
C243        C244   1.395       .  A
C243        H256   1.084       .  S
C244        C245   1.405       .  A
C244        C247   1.442       .  S
C245        C246   1.407       .  A
C245        H257   1.083       .  S
C246        H258   1.083       .  S
C247        C248   1.208       .  T
C248        C249   1.442       .  S
C249        C250   1.397       .  A
C249        C254   1.404       .  A
C250        C251   1.394       .  A
C250        H259   1.084       .  S
C251        C252   1.408       .  A
C251        H260   1.083       .  S
C252        C253   1.406       .  A
C253        C254   1.405       .  A
C253        H261   1.083       .  S
C254        H262   1.083       .  S
C263        C264   1.411       .  A
C263        C268   1.407       .  A
C264        C265   1.392       .  A
C264        H277   1.082       .  S
C265        C266   1.395       .  A
C265        H278   1.084       .  S
C266        C267   1.406       .  A
C266        C269   1.446       .  S
C267        C268   1.409       .  A
C267        H279   1.083       .  S
C268        H280   1.083       .  S
C269        C270   1.210       .  T
C270        C271   1.447       .  S
C271        C272   1.396       .  A
C271        C276   1.405       .  A
C272        C273   1.394       .  A
C272        H281   1.084       .  S
C273        C274   1.411       .  A
C273        H282   1.083       .  S
C274        C275   1.406       .  A
C275        C276   1.407       .  A
C275        H283   1.083       .  S
C276        H284   1.083       .  S
C285        C286   1.409       .  A
C285        C290   1.407       .  A
C286        C287   1.393       .  A
C286        H299   1.083       .  S
C287        C288   1.396       .  A
C287        H300   1.084       .  S
C288        C289   1.404       .  A
C288        C291   1.443       .  S
C289        C290   1.406       .  A
C289        H301   1.083       .  S
C290        H302   1.082       .  S
C291        C292   1.208       .  T
C292        C293   1.443       .  S
C293        C294   1.404       .  A
C293        C298   1.396       .  A
C294        C295   1.407       .  A
C294        H303   1.083       .  S
C295        C296   1.407       .  A
C295        H304   1.083       .  S
C296        C297   1.410       .  A
C297        C298   1.393       .  A
C297        H305   1.083       .  S
C298        H306   1.084       .  S
C307        C308   1.408       .  A
C307        C312   1.409       .  A
C308        C309   1.409       .  A
C308        H321   1.083       .  S
C309        C310   1.406       .  A
C309        H322   1.083       .  S
C310        C311   1.396       .  A
C310        C313   1.449       .  S
C311        C312   1.394       .  A
C311        H323   1.084       .  S
C312        H324   1.083       .  S
C313        C314   1.212       .  T
C314        C315   1.449       .  S
C315        C316   1.406       .  A
C315        C320   1.396       .  A
C316        C317   1.409       .  A
C316        H325   1.083       .  S
C317        C318   1.407       .  A
C317        H326   1.082       .  S
C318        C319   1.411       .  A
C319        C320   1.395       .  A
C319        H327   1.083       .  S
C320        H328   1.084       .  S
C329        C330   1.409       .  A
C329        C334   1.407       .  A
C330        C331   1.394       .  A
C330        H343   1.083       .  S
C331        C332   1.396       .  A
C331        H344   1.084       .  S
C332        C333   1.404       .  A
C332        C335   1.444       .  S
C333        C334   1.407       .  A
C333        H345   1.083       .  S
C334        H346   1.083       .  S
C335        C336   1.209       .  T
C336        C337   1.444       .  S
C337        C338   1.396       .  A
C337        C342   1.405       .  A
C338        C339   1.393       .  A
C338        H347   1.084       .  S
C339        C340   1.409       .  A
C339        H348   1.083       .  S
C340        C341   1.408       .  A
C341        C342   1.407       .  A
C341        H349   1.083       .  S
C342        H350   1.083       .  S
C351        C352   1.410       .  A
C351        C356   1.407       .  A
C352        C353   1.393       .  A
C352        H365   1.083       .  S
C353        C354   1.395       .  A
C353        H366   1.084       .  S
C354        C355   1.406       .  A
C354        C357   1.447       .  S
C355        C356   1.409       .  A
C355        H367   1.083       .  S
C356        H368   1.083       .  S
C357        C358   1.210       .  T
C358        C359   1.446       .  S
C359        C360   1.405       .  A
C359        C364   1.396       .  A
C360        C361   1.408       .  A
C360        H369   1.083       .  S
C361        C362   1.407       .  A
C361        H370   1.083       .  S
C362        C363   1.408       .  A
C363        C364   1.393       .  A
C363        H371   1.083       .  S
C364        H372   1.084       .  S
C373        C374   1.406       .  A
C373        C378   1.409       .  A
C374        C375   1.406       .  A
C374        H387   1.083       .  S
C375        C376   1.404       .  A
C375        H388   1.083       .  S
C376        C377   1.395       .  A
C376        C379   1.443       .  S
C377        C378   1.393       .  A
C377        H389   1.084       .  S
C378        H390   1.083       .  S
C379        C380   1.208       .  T
C380        C381   1.443       .  S
C381        C382   1.404       .  A
C381        C386   1.396       .  A
C382        C383   1.405       .  A
C382        H391   1.083       .  S
C383        C384   1.406       .  A
C383        H392   1.082       .  S
C384        C385   1.409       .  A
C385        C386   1.393       .  A
C385        H393   1.083       .  S
C386        H394   1.083       .  S
C395        C396   1.408       .  A
C395        C400   1.407       .  A
C396        C397   1.394       .  A
C396        H409   1.083       .  S
C397        C398   1.396       .  A
C397        H410   1.084       .  S
C398        C399   1.405       .  A
C398        C401   1.446       .  S
C399        C400   1.407       .  A
C399        H411   1.083       .  S
C400        H412   1.083       .  S
C401        C402   1.210       .  T
C402        C403   1.446       .  S
C403        C404   1.396       .  A
C403        C408   1.405       .  A
C404        C405   1.395       .  A
C404        H413   1.084       .  S
C405        C406   1.410       .  A
C405        H414   1.083       .  S
C406        C407   1.407       .  A
C407        C408   1.407       .  A
C407        H415   1.083       .  S
C408        H416   1.083       .  S
C417        C418   1.408       .  A
C417        C422   1.409       .  A
C418        C419   1.408       .  A
C418        H431   1.082       .  S
C419        C420   1.405       .  A
C419        H432   1.083       .  S
C420        C421   1.396       .  A
C420        C423   1.446       .  S
C421        C422   1.393       .  A
C421        H433   1.084       .  S
C422        H434   1.083       .  S
C423        C424   1.210       .  T
C424        C425   1.446       .  S
C425        C426   1.406       .  A
C425        C430   1.395       .  A
C426        C427   1.408       .  A
C426        H435   1.083       .  S
C427        C428   1.407       .  A
C427        H436   1.083       .  S
C428        C429   1.410       .  A
C429        C430   1.393       .  A
C429        H437   1.083       .  S
C430        H438   1.084       .  S
C439        C440   1.408       .  A
C439        C444   1.408       .  A
C440        C441   1.407       .  A
C440        H453   1.083       .  S
C441        C442   1.405       .  A
C441        H454   1.083       .  S
C442        C443   1.396       .  A
C442        C445   1.444       .  S
C443        C444   1.392       .  A
C443        H455   1.084       .  S
C444        H456   1.083       .  S
C445        C446   1.209       .  T
C446        C447   1.444       .  S
C447        C448   1.405       .  A
C447        C452   1.396       .  A
C448        C449   1.408       .  A
C448        H457   1.083       .  S
C449        C450   1.408       .  A
C449        H458   1.083       .  S
C450        C451   1.407       .  A
C451        C452   1.392       .  A
C451        H459   1.083       .  S
C452        H460   1.084       .  S
C461        C462   1.409       .  A
C461        C466   1.407       .  A
C462        C463   1.392       .  A
C462        H475   1.083       .  S
C463        C464   1.395       .  A
C463        H476   1.084       .  S
C464        C465   1.405       .  A
C464        C467   1.444       .  S
C465        C466   1.407       .  A
C465        H477   1.083       .  S
C466        H478   1.083       .  S
C467        C468   1.208       .  T
C468        C469   1.443       .  S
C469        C470   1.405       .  A
C469        C474   1.396       .  A
C470        C471   1.406       .  A
C470        H479   1.083       .  S
C471        C472   1.406       .  A
C471        H480   1.083       .  S
C472        C473   1.409       .  A
C473        C474   1.392       .  A
C473        H481   1.083       .  S
C474        H482   1.084       .  S
C483        C484   1.409       .  A
C483        C488   1.406       .  A
C484        C485   1.394       .  A
C484        H497   1.083       .  S
C485        C486   1.396       .  A
C485        H498   1.084       .  S
C486        C487   1.405       .  A
C486        C489   1.444       .  S
C487        C488   1.406       .  A
C487        H499   1.083       .  S
C488        H500   1.083       .  S
C489        C490   1.209       .  T
C490        C491   1.443       .  S
C491        C492   1.405       .  A
C491        C496   1.395       .  A
C492        C493   1.408       .  A
C492        H501   1.083       .  S
C493        C494   1.408       .  A
C493        H502   1.083       .  S
C494        C495   1.409       .  A
C495        C496   1.391       .  A
C495        H503   1.083       .  S
C496        H504   1.084       .  S
C505        C506   1.409       .  A
C505        C510   1.407       .  A
C506        C507   1.392       .  A
C506        H519   1.083       .  S
C507        C508   1.395       .  A
C507        H520   1.084       .  S
C508        C509   1.404       .  A
C508        C511   1.442       .  S
C509        C510   1.407       .  A
C509        H521   1.083       .  S
C510        H522   1.083       .  S
C511        C512   1.208       .  T
C512        C513   1.442       .  S
C513        C514   1.395       .  A
C513        C518   1.405       .  A
C514        C515   1.391       .  A
C514        H523   1.084       .  S
C515        C516   1.410       .  A
C515        H524   1.083       .  S
C516        C517   1.406       .  A
C517        C518   1.406       .  A
C517        H525   1.083       .  S
C518        H526   1.083       .  S
C527        C528   1.408       .  A
C527        C532   1.410       .  A
C528        C529   1.408       .  A
C528        H541   1.082       .  S
C529        C530   1.405       .  A
C529        H542   1.084       .  S
C530        C531   1.396       .  A
C530        C533   1.447       .  S
C531        C532   1.394       .  A
C531        H543   1.084       .  S
C532        H544   1.083       .  S
C533        C534   1.210       .  T
C534        C535   1.446       .  S
C535        C536   1.406       .  A
C535        C540   1.396       .  A
C536        C537   1.407       .  A
C536        H545   1.083       .  S
C537        C538   1.406       .  A
C537        H546   1.083       .  S
C538        C539   1.409       .  A
C539        C540   1.394       .  A
C539        H547   1.083       .  S
C540        H548   1.084       .  S
C549        C550   1.408       .  A
C549        C554   1.408       .  A
C550        C551   1.407       .  A
C550        H563   1.082       .  S
C551        C552   1.405       .  A
C551        H564   1.083       .  S
C552        C553   1.395       .  A
C552        C555   1.443       .  S
C553        C554   1.391       .  A
C553        H565   1.084       .  S
C554        H566   1.083       .  S
C555        C556   1.208       .  T
C556        C557   1.443       .  S
C557        C558   1.396       .  A
C557        C562   1.404       .  A
C558        C559   1.392       .  A
C558        H567   1.084       .  S
C559        C560   1.408       .  A
C559        H568   1.083       .  S
C560        C561   1.408       .  A
C561        C562   1.407       .  A
C561        H569   1.083       .  S
C562        H570   1.083       .  S
C571        C572   1.405       .  A
C571        C576   1.409       .  A
C572        C573   1.406       .  A
C572        H585   1.083       .  S
C573        C574   1.405       .  A
C573        H586   1.083       .  S
C574        C575   1.394       .  A
C574        C577   1.441       .  S
C575        C576   1.391       .  A
C575        H587   1.084       .  S
C576        H588   1.083       .  S
C577        C578   1.207       .  T
C578        C579   1.441       .  S
C579        C580   1.395       .  A
C579        C584   1.404       .  A
C580        C581   1.391       .  A
C580        H589   1.084       .  S
C581        C582   1.410       .  A
C581        H590   1.083       .  S
C582        C583   1.406       .  A
C583        C584   1.406       .  A
C583        H591   1.083       .  S
C584        H592   1.083       .  S
C593        C594   1.409       .  A
C593        C598   1.408       .  A
C594        C595   1.394       .  A
C594        H607   1.083       .  S
C595        C596   1.397       .  A
C595        H608   1.083       .  S
C596        C597   1.404       .  A
C596        C599   1.445       .  S
C597        C598   1.407       .  A
C597        H609   1.083       .  S
C598        H610   1.082       .  S
C599        C600   1.210       .  T
C600        C601   1.446       .  S
C601        C602   1.396       .  A
C601        C606   1.405       .  A
C602        C603   1.394       .  A
C602        H611   1.084       .  S
C603        C604   1.410       .  A
C603        H612   1.083       .  S
C604        C605   1.408       .  A
C605        C606   1.408       .  A
C605        H613   1.082       .  S
C606        H614   1.083       .  S
C615        C616   1.407       .  A
C615        C620   1.407       .  A
C616        C617   1.390       .  A
C616        H629   1.082       .  S
C617        C618   1.395       .  A
C617        H630   1.085       .  S
C618        C619   1.403       .  A
C618        C621   1.437       .  S
C619        C620   1.405       .  A
C619        H631   1.082       .  S
C620        H632   1.083       .  S
C621        C622   1.205       .  T
C622        C623   1.437       .  S
C623        C624   1.403       .  A
C623        C628   1.395       .  A
C624        C625   1.404       .  A
C624        H633   1.083       .  S
C625        C626   1.406       .  A
C625        H634   1.083       .  S
C626        C627   1.409       .  A
C627        C628   1.390       .  A
C627        H635   1.083       .  S
C628        H636   1.084       .  S
C637        C638   1.409       .  A
C637        C642   1.409       .  A
C638        C639   1.395       .  A
C638        H651   1.083       .  S
C639        C640   1.397       .  A
C639        H652   1.083       .  S
C640        C641   1.406       .  A
C640        C643   1.450       .  S
C641        C642   1.409       .  A
C641        H653   1.083       .  S
C642        H654   1.083       .  S
C643        C644   1.212       .  T
C644        C645   1.450       .  S
C645        C646   1.396       .  A
C645        C650   1.407       .  A
C646        C647   1.395       .  A
C646        H655   1.084       .  S
C647        C648   1.410       .  A
C647        H656   1.083       .  S
C648        C649   1.408       .  A
C649        C650   1.411       .  A
C649        H657   1.083       .  S
C650        H658   1.083       .  S
C659        C660   1.410       .  A
C659        C664   1.407       .  A
C660        C661   1.392       .  A
C660        H673   1.083       .  S
C661        C662   1.395       .  A
C661        H674   1.084       .  S
C662        C663   1.406       .  A
C662        C665   1.445       .  S
C663        C664   1.409       .  A
C663        H675   1.083       .  S
C664        H676   1.083       .  S
C665        C666   1.210       .  T
C666        C667   1.445       .  S
C667        C668   1.396       .  A
C667        C672   1.405       .  A
C668        C669   1.394       .  A
C668        H677   1.084       .  S
C669        C670   1.408       .  A
C669        H678   1.083       .  S
C670        C671   1.408       .  A
C671        C672   1.407       .  A
C671        H679   1.083       .  S
C672        H680   1.083       .  S
C681        C682   1.407       .  A
C681        C686   1.409       .  A
C682        C683   1.408       .  A
C682        H695   1.083       .  S
C683        C684   1.405       .  A
C683        H696   1.083       .  S
C684        C685   1.395       .  A
C684        C687   1.444       .  S
C685        C686   1.392       .  A
C685        H697   1.084       .  S
C686        H698   1.083       .  S
C687        C688   1.209       .  T
C688        C689   1.444       .  S
C689        C690   1.404       .  A
C689        C694   1.397       .  A
C690        C691   1.405       .  A
C690        H699   1.083       .  S
C691        C692   1.407       .  A
C691        H700   1.083       .  S
C692        C693   1.409       .  A
C693        C694   1.395       .  A
C693        H701   1.083       .  S
C694        H702   1.084       .  S
