geometry optimzed in LAMMPS
_audit_creation_date              2020-11-30 
_audit_creation_method            'lammps2cif' 
_symmetry_space_group_name_H-M    'P1' 
_symmetry_Int_Tables_number       1 
_symmetry_cell_setting            triclinic 
loop_ 
_symmetry_equiv_pos_as_xyz 
  x,y,z 
_cell_length_a                    48.07788033 
_cell_length_b                    25.123095975373356 
_cell_length_c                    25.540947007022528 
_cell_angle_alpha                 89.71480510149593 
_cell_angle_beta                  90.29844031992957 
_cell_angle_gamma                 89.60313093724368 
loop_ 
_atom_site_label 
_atom_site_type_symbol 
_atom_site_fract_x 
_atom_site_fract_y 
_atom_site_fract_z 
_atom_site_charge 
N1          N  0.16328559  0.42676691  0.05049552    -0.06700
N2          N  0.18462967  0.39638947  0.06637110    -0.58900
N3          N  0.13849822  0.39143215  0.93949232    -0.06400
N4          N  0.14278275  0.34898844  0.91075772    -0.61000
N5          N  0.15870612  0.42602576  0.93325525    -0.06000
N6          N  0.17768425  0.40579085  0.90135187    -0.58800
N7          N  0.14013876  0.40119979  0.06092702    -0.05700
N8          N  0.14505964  0.35781849  0.08800240    -0.61300
C9          C  0.17264036  0.35325632  0.09000288     0.95400
C10         C  0.16716446  0.35777008  0.88699769     0.95200
N11         N  0.05512916  0.42048575  0.94113356    -0.06900
N12         N  0.04240892  0.41404709  0.89530819    -0.59400
N13         N  0.07791759  0.39576764  0.06555234    -0.05000
N14         N  0.08136724  0.37302441  0.11181322    -0.60700
N15         N  0.05802036  0.43169626  0.06656493    -0.07000
N16         N  0.04774485  0.43450141  0.11455085    -0.59700
N17         N  0.07569147  0.38607594  0.94480719    -0.04700
N18         N  0.07750140  0.35617655  0.90268051    -0.60800
Mn19       Mn  0.10789392  0.39343186  0.00276537     1.18400
C20         C  0.05638538  0.37296223  0.87205668     0.97500
C21         C  0.06238327  0.39709377  0.14224265     0.98200
N22         N  0.15886770  0.56091623  0.93050836    -0.07000
N23         N  0.17929650  0.59395154  0.91720923    -0.63300
N24         N  0.13945955  0.59303321  0.04452681    -0.05800
N25         N  0.14517677  0.63847432  0.06689580    -0.64000
N26         N  0.16154627  0.56150441  0.04447521    -0.06500
N27         N  0.18315051  0.58735135  0.06443261    -0.63500
N28         N  0.13498458  0.58666278  0.92505439    -0.05400
N29         N  0.13866696  0.63360101  0.90372362    -0.64200
Mn30       Mn  0.16177492  0.49332323  0.98945828     1.10700
C31         C  0.16612653  0.63920611  0.90025884     0.98700
C32         C  0.17224662  0.63503007  0.07910186     0.98800
N33         N  0.05622573  0.55613807  0.05721145    -0.06500
N34         N  0.04489724  0.56133985  0.10419669    -0.61900
N35         N  0.07197176  0.58311030  0.93024534    -0.05800
N36         N  0.07264186  0.60556286  0.88347586    -0.58600
N37         N  0.05325542  0.54535093  0.93196800    -0.07100
N38         N  0.04106382  0.54102800  0.88549888    -0.61400
N39         N  0.07613310  0.59123379  0.05216842    -0.06100
N40         N  0.07902356  0.62014423  0.09492075    -0.58600
Mn41       Mn  0.05384384  0.48845087  0.99922739     1.20200
Mn42       Mn  0.10519632  0.58831986  0.98812771     1.10100
Cl43       Cl  0.10749538  0.49101017  0.99464807    -0.86600
C44         C  0.05922338  0.60180702  0.12721750     0.95700
C45         C  0.05320583  0.57943978  0.85578165     0.95500
N46         N  0.44492001  0.43406234  0.06046440    -0.06700
N47         N  0.45597458  0.43645059  0.10803091    -0.58900
N48         N  0.42681143  0.39773924  0.93517293    -0.06400
N49         N  0.42364074  0.37904418  0.88724406    -0.61000
N50         N  0.44623284  0.43408160  0.93599735    -0.06000
N51         N  0.45665141  0.44052671  0.88874470    -0.58800
N52         N  0.42557049  0.39754688  0.05945505    -0.05700
N53         N  0.42289265  0.37472407  0.10583819    -0.61300
C54         C  0.44222711  0.39871002  0.13563514     0.95400
C55         C  0.44240650  0.40605284  0.85858559     0.95200
N56         N  0.34097746  0.42014345  0.93435393    -0.06900
N57         N  0.32211497  0.39393623  0.90590498    -0.59400
N58         N  0.36234026  0.39113747  0.05442056    -0.05000
N59         N  0.35791948  0.34683290  0.08046502    -0.60700
N60         N  0.33958118  0.42080828  0.05197919    -0.07000
N61         N  0.31885699  0.39431713  0.07442833    -0.59700
N62         N  0.36407528  0.39146825  0.93563862    -0.04700
N63         N  0.36197472  0.34854720  0.90716876    -0.60800
Mn64       Mn  0.39521787  0.39412739  0.99633143     1.18400
C65         C  0.33604641  0.34962428  0.88826504     0.97500
C66         C  0.33098210  0.34881265  0.09343646     0.98200
N67         N  0.44426224  0.55480737  0.93272905    -0.07000
N68         N  0.45657942  0.55308137  0.88645120    -0.63300
N69         N  0.42282449  0.59084023  0.05611650    -0.05800
N70         N  0.41983764  0.61192651  0.10333009    -0.64000
N71         N  0.44287691  0.55533645  0.05689591    -0.06500
N72         N  0.45346163  0.55129774  0.10432348    -0.63500
N73         N  0.42357600  0.58911519  0.93125808    -0.05400
N74         N  0.42130618  0.61113497  0.88430860    -0.64200
Mn75       Mn  0.44595156  0.49462150  0.99670190     1.10700
C76         C  0.44226803  0.58898161  0.85691284     0.98700
C77         C  0.43947490  0.58717449  0.13326128     0.98800
N78         N  0.33781067  0.55756725  0.05187762    -0.06500
N79         N  0.31818405  0.58086658  0.08121349    -0.61900
N80         N  0.35942567  0.58850661  0.93209223    -0.05800
N81         N  0.35314221  0.63312811  0.90764531    -0.58600
N82         N  0.33753375  0.55701767  0.93486925    -0.07100
N83         N  0.31561520  0.58266597  0.91458647    -0.61400
N84         N  0.35954973  0.58930880  0.04993675    -0.06100
N85         N  0.35580892  0.63175601  0.07815340    -0.58600
Mn86       Mn  0.33747749  0.48872109  0.99328683     1.20200
Mn87       Mn  0.39181844  0.58989684  0.99207536     1.10100
Cl88       Cl  0.39184497  0.49192477  0.99460953    -0.86600
C89         C  0.33044013  0.62688737  0.09837214     0.95700
C90         C  0.32599717  0.62957383  0.89635764     0.95500
N91         N  0.21104050  0.06213376  0.29241103    -0.06700
N92         N  0.19638033  0.08829594  0.32828400    -0.58900
N93         N  0.19494319  0.94089533  0.25736794    -0.06400
N94         N  0.17151163  0.91568970  0.26545437    -0.61000
N95         N  0.20979227  0.94416267  0.30103330    -0.06000
N96         N  0.19546895  0.92218685  0.34009933    -0.58800
N97         N  0.19625152  0.05995905  0.24881189    -0.05700
N98         N  0.17266697  0.08579342  0.25350943    -0.61300
C99         C  0.17263692  0.10375910  0.30265684     0.95400
C100        C  0.17183526  0.90382702  0.31666884     0.95200
N101        N  0.22044900  0.92792564  0.10130217    -0.06900
N102        N  0.22025827  0.88050630  0.07885393    -0.59400
N103        N  0.20329519  0.05644837  0.13117679    -0.05000
N104        N  0.19300989  0.10501336  0.13503097    -0.60700
N105        N  0.22363229  0.05498459  0.09703220    -0.07000
N106        N  0.22755799  0.10327876  0.07715263    -0.59700
N107        N  0.20056564  0.93120184  0.13601509    -0.04700
N108        N  0.18638310  0.88648643  0.13776275    -0.60800
Mn109      Mn  0.19865624  0.99656318  0.19222348     1.18400
C110        C  0.19871557  0.85498306  0.10180448     0.97500
C111        C  0.20835036  0.13384967  0.10166719     0.98200
N112        N  0.28094771  0.94264123  0.31191359    -0.07000
N113        N  0.29313742  0.92447892  0.35554528    -0.63300
N114        N  0.29958230  0.05682520  0.26253592    -0.05800
N115        N  0.32186647  0.08519238  0.27076416    -0.64000
N116        N  0.28202203  0.06083420  0.30195065    -0.06500
N117        N  0.29350673  0.09101084  0.33916139    -0.63500
N118        N  0.29851100  0.93733526  0.27260345    -0.05400
N119        N  0.32160463  0.91399199  0.28795840    -0.64200
Mn120      Mn  0.24588167  0.00259325  0.30414771     1.10700
C121        C  0.31841768  0.90617130  0.33932962     0.98700
C122        C  0.31827213  0.10678408  0.31806284     0.98800
N123        N  0.28647639  0.04951630  0.10347437    -0.06500
N124        N  0.28643241  0.09683497  0.07987911    -0.61900
N125        N  0.30126826  0.92391730  0.15398092    -0.05800
N126        N  0.31180733  0.87679204  0.16623292    -0.58600
N127        N  0.28338717  0.92013257  0.11515403    -0.07100
N128        N  0.28109977  0.86939850  0.10109684    -0.61400
N129        N  0.30371676  0.04986511  0.14331052    -0.06100
N130        N  0.31577074  0.09668222  0.14733383    -0.58600
Mn131      Mn  0.25370535  0.98780895  0.10118987     1.20200
Mn132      Mn  0.30088691  0.99183766  0.20695983     1.10100
Cl133      Cl  0.24966338  0.99440302  0.20249976    -0.86600
C134        C  0.30503921  0.12600341  0.10755829     0.95700
C135        C  0.29914132  0.84284561  0.13327743     0.95500
N136        N  0.22140791  0.06404687  0.87926281    -0.06700
N137        N  0.22284751  0.11432135  0.89547840    -0.58900
N138        N  0.20078739  0.93402106  0.85528170    -0.06400
N139        N  0.18895890  0.88686569  0.85305273    -0.61000
N140        N  0.22026039  0.93471211  0.89143240    -0.06000
N141        N  0.22209828  0.88721165  0.91436543    -0.58800
N142        N  0.20190482  0.05996720  0.84341378    -0.05700
N143        N  0.18975041  0.10650171  0.83491109    -0.61300
C144        C  0.20272652  0.14057386  0.86749931     0.95400
C145        C  0.20228738  0.85805562  0.88998185     0.95200
N146        N  0.21343622  0.92105750  0.69483879    -0.06900
N147        N  0.19980492  0.89236944  0.65940028    -0.59400
N148        N  0.19774735  0.04376525  0.72398525    -0.05000
N149        N  0.17380713  0.06570370  0.71127835    -0.60700
N150        N  0.21392234  0.03893728  0.68253857    -0.07000
N151        N  0.20030470  0.05702510  0.64052067    -0.59700
N152        N  0.19788734  0.92512229  0.73714480    -0.04700
N153        N  0.17486289  0.89797928  0.73230752    -0.60800
Mn154      Mn  0.19949177  0.99112672  0.79120426     1.18400
C155        C  0.17600758  0.87723938  0.68426868     0.97500
C156        C  0.17547464  0.07410548  0.65967891     0.98200
N157        N  0.28348546  0.93033001  0.88892380    -0.07000
N158        N  0.28210743  0.88339961  0.91326000    -0.63300
N159        N  0.30342988  0.05127779  0.83825946    -0.05800
N160        N  0.31649306  0.09593146  0.82788208    -0.64000
N161        N  0.28505180  0.05815761  0.87540980    -0.06500
N162        N  0.28506143  0.10855011  0.89049305    -0.63500
N163        N  0.30171987  0.92759470  0.85099320    -0.05400
N164        N  0.31319048  0.87992414  0.84919317    -0.64200
Mn165      Mn  0.25253819  0.99728770  0.88703165     1.10700
C166        C  0.30107809  0.85232147  0.88816582     0.98700
C167        C  0.30510050  0.13141487  0.86082548     0.98800
N168        N  0.28427020  0.03776414  0.68011360    -0.06500
N169        N  0.29510130  0.06327388  0.63923043    -0.61900
N170        N  0.30022092  0.91902629  0.73146368    -0.05800
N171        N  0.32312834  0.89197864  0.72378141    -0.58600
N172        N  0.28425949  0.91919489  0.68925595    -0.07100
N173        N  0.29766603  0.89409794  0.65083359    -0.61400
N174        N  0.30226527  0.03845302  0.71935602    -0.06100
N175        N  0.32472566  0.06480110  0.70668500    -0.58600
Mn176      Mn  0.24895200  0.97912261  0.68441470     1.20200
Mn177      Mn  0.30201534  0.98404705  0.78599433     1.10100
Cl178      Cl  0.25072061  0.98804688  0.78595212    -0.86600
C179        C  0.32017319  0.08079138  0.65726966     0.95700
C180        C  0.32171875  0.87643259  0.67392978     0.95500
N181        N  0.03262428  0.18570592  0.43840826    -0.06700
N182        N  0.04328689  0.14707610  0.40882935    -0.58900
N183        N  0.04818352  0.22119899  0.56159731    -0.06400
N184        N  0.07072161  0.20889946  0.58774075    -0.61000
N185        N  0.03212358  0.17935552  0.55552030    -0.06000
N186        N  0.04541240  0.13659331  0.57485786    -0.58800
N187        N  0.05109133  0.22407777  0.44266555    -0.05700
N188        N  0.07351602  0.21363680  0.41555895    -0.61300
C189        C  0.06862972  0.16622915  0.39410200     0.95400
C190        C  0.06956792  0.15635416  0.59536613     0.95200
N191        N  0.03558836  0.38069193  0.56788269    -0.06900
N192        N  0.03358077  0.39776299  0.61679265    -0.59400
N193        N  0.05538669  0.34417177  0.44337502    -0.05000
N194        N  0.06830794  0.33842820  0.39829202    -0.60700
N195        N  0.03821244  0.38484020  0.44159902    -0.07000
N196        N  0.03926267  0.40788633  0.39493076    -0.59700
N197        N  0.05332725  0.34082371  0.56658713    -0.04700
N198        N  0.06402329  0.33105804  0.61352934    -0.60800
Mn199      Mn  0.05204019  0.28329281  0.50358500     1.18400
C200        C  0.05181365  0.36712233  0.64483052     0.97500
C201        C  0.05831663  0.37859758  0.36838785     0.98200
N202        N  0.46201572  0.19026438  0.55202299    -0.07000
N203        N  0.44711556  0.14982849  0.57050135    -0.63300
N204        N  0.44638223  0.23966007  0.43810580    -0.05800
N205        N  0.42280688  0.23392795  0.41261184    -0.64000
N206        N  0.46178726  0.19595029  0.43593519    -0.06500
N207        N  0.44767985  0.15888287  0.40999386    -0.63500
N208        N  0.44711404  0.23464899  0.55544954    -0.05400
N209        N  0.42298718  0.22517810  0.57732040    -0.63600
Mn210      Mn  0.49737791  0.18584756  0.49394449     1.10700
C211        C  0.42280743  0.17254591  0.58656065     0.98700
C212        C  0.42371512  0.18405567  0.39467860     0.98800
N213        N  0.47410496  0.39340210  0.43524406    -0.06500
N214        N  0.47613765  0.41257341  0.38687692    -0.61900
N215        N  0.45345921  0.35978484  0.56006427    -0.05800
N216        N  0.44046578  0.36056220  0.60535181    -0.58600
N217        N  0.47330775  0.39530463  0.55953663    -0.07100
N218        N  0.47434407  0.42066742  0.60472543    -0.61400
N219        N  0.45291528  0.36068475  0.43782527    -0.06100
N220        N  0.43991622  0.35793616  0.39232413    -0.58600
Mn221      Mn  0.50572366  0.39200160  0.49979829     1.20200
Mn222      Mn  0.44989336  0.29965154  0.49853911     1.10100
Cl223      Cl  0.50123092  0.28976096  0.49837368    -0.86600
C224        C  0.45425674  0.39079254  0.36092530     0.95700
C225        C  0.45361610  0.39882601  0.63298672     0.95500
N226        N  0.03134582  0.59991540  0.42808985    -0.06700
N227        N  0.03090584  0.58013099  0.38015985    -0.58900
N228        N  0.05056684  0.63307596  0.55386759    -0.06400
N229        N  0.06216175  0.63679513  0.60068754    -0.61000
N230        N  0.03235741  0.59436114  0.55300075    -0.06000
N231        N  0.03149148  0.57079456  0.59948616    -0.58800
N232        N  0.05030878  0.63717064  0.43075365    -0.05700
N233        N  0.06304661  0.64312811  0.38537268    -0.61300
C234        C  0.05095834  0.60717854  0.35381018     0.95400
C235        C  0.05031183  0.59749848  0.62882583     0.95200
N236        N  0.03436119  0.79685809  0.55525693    -0.06900
N237        N  0.04631476  0.83617303  0.58172721    -0.59400
N238        N  0.04971380  0.75903151  0.43610750    -0.05000
N239        N  0.07145296  0.76892118  0.40695833    -0.60700
N240        N  0.03273190  0.80057973  0.43794087    -0.07000
N241        N  0.04398585  0.84058688  0.41103916    -0.59700
N242        N  0.05161044  0.75577358  0.55361888    -0.04700
N243        N  0.07466584  0.76555780  0.57940585    -0.60800
Mn244      Mn  0.05074246  0.69523819  0.49369688     1.18400
C245        C  0.07124655  0.81516072  0.59715300     0.97500
C246        C  0.06784523  0.81927744  0.39084985     0.98200
N247        N  0.46952375  0.59912150  0.55581096    -0.07000
N248        N  0.47137054  0.57806747  0.60348892    -0.63300
N249        N  0.44810131  0.63869590  0.43281030    -0.05800
N250        N  0.43251812  0.64006241  0.39005942    -0.64000
N251        N  0.46671158  0.60040507  0.43054889    -0.06500
N252        N  0.46385687  0.57451619  0.38577851    -0.63500
N253        N  0.45030287  0.63650686  0.55530260    -0.05400
N254        N  0.43862226  0.64127310  0.60172047    -0.64200
Mn255      Mn  0.50064461  0.59714549  0.49111619     1.10700
C256        C  0.45160470  0.60428790  0.63134350     0.98700
C257        C  0.44225738  0.59953222  0.36076292     0.98800
N258        N  0.46282682  0.80438332  0.44086496    -0.06500
N259        N  0.44757830  0.84615787  0.42529655    -0.61900
N260        N  0.44900320  0.75690730  0.55596486    -0.05800
N261        N  0.42698156  0.76387855  0.58515617    -0.58600
N262        N  0.46518417  0.79905206  0.55684369    -0.07100
N263        N  0.45305910  0.83686705  0.58527688    -0.61400
N264        N  0.44749055  0.76108042  0.43725320    -0.06100
N265        N  0.42307694  0.77209859  0.41686103    -0.58600
Mn266      Mn  0.49927969  0.80417621  0.49710498     1.20200
Mn267      Mn  0.44882519  0.69761071  0.49489587     1.10100
Cl268      Cl  0.50016947  0.69997358  0.49364614    -0.86600
C269        C  0.42276545  0.82487114  0.41036231     0.95700
C270        C  0.42959478  0.81319602  0.60376436     0.95500
C271        C  0.36499554  0.82570865  0.68218919    -0.12900
C272        C  0.34771135  0.85676603  0.64942063     0.04100
C273        C  0.35926202  0.87902300  0.60356343    -0.08200
C274        C  0.38753458  0.86971231  0.59178206    -0.08900
C275        C  0.40468549  0.83919946  0.62542572    -0.03500
C276        C  0.39307028  0.81756515  0.67114975     0.03300
N277        N  0.40970030  0.78724689  0.70720464     0.65800
H278        H  0.35687432  0.80939880  0.71839495     0.14700
H279        H  0.39575369  0.88415440  0.55494262     0.14500
N280        N  0.34282127  0.91104086  0.56875253     0.73600
O281        O  0.42114212  0.81071091  0.74512078    -0.39900
O282        O  0.40738298  0.73726104  0.70860045    -0.39800
O283        O  0.34558993  0.96092484  0.56911725    -0.40500
O284        O  0.33115166  0.88941204  0.53003543    -0.40600
C285        C  0.10226903  0.82760507  0.67204200    -0.12900
C286        C  0.09500166  0.84289402  0.62115501     0.04100
C287        C  0.11532654  0.86746815  0.58959783    -0.08200
C288        C  0.14232810  0.87600721  0.60924071    -0.08900
C289        C  0.14983382  0.85861922  0.65965159    -0.03500
C290        C  0.12941841  0.83358630  0.69089566     0.03300
N291        N  0.13629535  0.81130233  0.74099101     0.65800
H292        H  0.08712195  0.80784924  0.69642047     0.14700
H293        H  0.15732671  0.89668122  0.58515273     0.14500
N294        N  0.10926717  0.88159795  0.53661800     0.73600
O295        O  0.12831683  0.83467655  0.78192146    -0.39900
O296        O  0.14372065  0.76308586  0.74383562    -0.39800
O297        O  0.10332887  0.92934728  0.52550008    -0.40500
O298        O  0.11632545  0.85017011  0.50061811    -0.40600
C299        C  0.36812164  0.06893460  0.62484217    -0.12900
C300        C  0.34378064  0.10047513  0.62587624     0.04100
C301        C  0.34544797  0.15395854  0.61033066    -0.08200
C302        C  0.37128508  0.17555241  0.59706308    -0.08900
C303        C  0.39606980  0.14489489  0.59851338    -0.03500
C304        C  0.39399395  0.09023341  0.61057855     0.03300
N305        N  0.41790523  0.05621828  0.61110699     0.65800
H306        H  0.36734311  0.02794838  0.63818888     0.14700
H307        H  0.37183985  0.21741041  0.58677462     0.14500
N308        N  0.32159847  0.18811249  0.61179133     0.73600
O309        O  0.42989279  0.04609294  0.65411312    -0.39900
O310        O  0.42227417  0.02625417  0.57246175    -0.39800
O311        O  0.31837017  0.21880338  0.65027717    -0.40500
O312        O  0.30827820  0.19728337  0.56998331    -0.40600
C313        C  0.12102850  0.15620399  0.59358613    -0.12900
C314        C  0.09645353  0.12761934  0.60481161     0.04100
C315        C  0.09922220  0.07589064  0.62563422    -0.08200
C316        C  0.12593770  0.05632742  0.63877483    -0.08900
C317        C  0.15008457  0.08664666  0.62941201    -0.03500
C318        C  0.14745281  0.13555756  0.60381279     0.03300
N319        N  0.17130776  0.16658339  0.59115309     0.65800
H320        H  0.12003745  0.19581068  0.57670777     0.14700
H321        H  0.12774558  0.01848186  0.65915473     0.14500
N322        N  0.07540283  0.04465591  0.63778688     0.73600
O323        O  0.18213460  0.16164767  0.54652157    -0.39900
O324        O  0.17702383  0.20685930  0.61837829    -0.39800
O325        O  0.06952632  0.00542311  0.60923073    -0.40500
O326        O  0.06491028  0.04778314  0.68285446    -0.40600
C327        C  0.34466297  0.85016355  0.40337933    -0.12900
C328        C  0.34340615  0.89562801  0.37205512     0.04100
C329        C  0.36842774  0.92300837  0.36070780    -0.08200
C330        C  0.39430846  0.90166241  0.37604056    -0.08900
C331        C  0.39573483  0.85354347  0.40352965    -0.03500
C332        C  0.37042684  0.82943691  0.41993478     0.03300
N333        N  0.37050129  0.78238808  0.45172997     0.65800
H334        H  0.32576885  0.82877392  0.41235415     0.14700
H335        H  0.41325733  0.92134091  0.36417442     0.14500
N336        N  0.36775719  0.97143053  0.33111145     0.73600
O337        O  0.37982064  0.78381559  0.49797453    -0.39900
O338        O  0.36269306  0.73869327  0.43263900    -0.39800
O339        O  0.35433701  0.01091999  0.34808592    -0.40500
O340        O  0.37812143  0.97314627  0.28585054    -0.40600
C341        C  0.13402197  0.83848278  0.31580140    -0.12900
C342        C  0.14652048  0.88124258  0.34144915     0.04100
C343        C  0.13094932  0.90812480  0.38008504    -0.08200
C344        C  0.10359381  0.89165737  0.39191756    -0.08900
C345        C  0.09167615  0.84756246  0.36691321    -0.03500
C346        C  0.10726728  0.82137640  0.32795542     0.03300
N347        N  0.09616130  0.77690301  0.30032672     0.65800
H348        H  0.14522232  0.81795190  0.28465887     0.14700
H349        H  0.09219846  0.91169542  0.42271578     0.14500
N350        N  0.14221596  0.95295347  0.40651259     0.73600
O351        O  0.08319159  0.78483547  0.25789381    -0.39900
O352        O  0.10506903  0.73071614  0.31094390    -0.39800
O353        O  0.13203901  0.99843461  0.39749281    -0.40500
O354        O  0.15731460  0.94577531  0.44651378    -0.40600
C355        C  0.37878941  0.13762606  0.41095240    -0.12900
C356        C  0.39786762  0.15922613  0.37498668     0.04100
C357        C  0.38859946  0.17039169  0.32384225    -0.08200
C358        C  0.36157019  0.15717725  0.30857946    -0.08900
C359        C  0.34268062  0.13308713  0.34326442    -0.03500
C360        C  0.35131636  0.12475103  0.39570684     0.03300
N361        N  0.33264739  0.10420728  0.43401987     0.65800
H362        H  0.38496898  0.13241088  0.45155027     0.14700
H363        H  0.35550031  0.16474028  0.26825842     0.14500
N364        N  0.40630902  0.19600082  0.28683444     0.73600
O365        O  0.33484917  0.05619523  0.44825412    -0.39900
O366        O  0.31960604  0.13646197  0.46276017    -0.39800
O367        O  0.41636662  0.16929211  0.24965929    -0.40500
O368        O  0.40640192  0.24616360  0.28411766    -0.40600
C369        C  0.09655803  0.14408173  0.31621980    -0.12900
C370        C  0.09206381  0.13705018  0.36988607     0.04100
C371        C  0.11481832  0.12093915  0.40170188    -0.08200
C372        C  0.14126325  0.11253725  0.38006758    -0.08900
C373        C  0.14590077  0.12076180  0.32673197    -0.03500
C374        C  0.12319641  0.13754030  0.29473823     0.03300
N375        N  0.12724170  0.15131001  0.24086558     0.65800
H376        H  0.07988839  0.15923949  0.29154804     0.14700
H377        H  0.15823033  0.09972210  0.40533058     0.14500
N378        N  0.11226003  0.11937129  0.45717754     0.73600
O379        O  0.11642690  0.12344573  0.20529744    -0.39900
O380        O  0.14334293  0.18884748  0.22874614    -0.39800
O381        O  0.10992324  0.07511033  0.48025196    -0.40500
O382        O  0.11994840  0.15945038  0.48274543    -0.40600
C383        C  0.33083555  0.76593066  0.14738131    -0.12900
C384        C  0.30398719  0.78389924  0.13540342     0.04100
C385        C  0.28289697  0.74487468  0.12972916    -0.08200
C386        C  0.29073680  0.69130925  0.11873834    -0.08900
C387        C  0.31843449  0.67468485  0.12501612    -0.03500
C388        C  0.33753075  0.71171426  0.14613086     0.03300
N389        N  0.36461185  0.69489941  0.16317680     0.65800
H390        H  0.34679805  0.79418418  0.15805315     0.14700
H391        H  0.27529879  0.66268147  0.10657345     0.14500
N392        N  0.25462138  0.75624669  0.14421906     0.73600
O393        O  0.38584473  0.71993676  0.14831296    -0.39900
O394        O  0.36740513  0.65305602  0.19035608    -0.39800
O395        O  0.24868894  0.79916700  0.16725510    -0.40500
O396        O  0.23794599  0.71802774  0.14878046    -0.40600
C397        C  0.32247510  0.21054996  0.14618795    -0.12900
C398        C  0.30855315  0.18529159  0.10461289     0.04100
C399        C  0.29730434  0.21786931  0.06421438    -0.08200
C400        C  0.30160068  0.27338522  0.06475905    -0.08900
C401        C  0.31685245  0.29777064  0.10494229    -0.03500
C402        C  0.32647931  0.26575668  0.14679524     0.03300
N403        N  0.34095954  0.28869715  0.19002675     0.65800
H404        H  0.33054230  0.18736173  0.17884522     0.14700
H405        H  0.29493439  0.29699742  0.03140089     0.14500
N406        N  0.28291751  0.19527261  0.02084034     0.73600
O407        O  0.32755968  0.30030492  0.23080791    -0.39900
O408        O  0.36710721  0.28474660  0.19248236    -0.39800
O409        O  0.25731657  0.20484297  0.01467615    -0.40500
O410        O  0.29675716  0.17665708  0.98327600    -0.40600
C411        C  0.30047980  0.70608983  0.93412772    -0.12900
C412        C  0.31028398  0.68004328  0.88902712     0.04100
C413        C  0.31492982  0.71076166  0.84371018    -0.08200
C414        C  0.31143430  0.76609940  0.84483738    -0.08900
C415        C  0.30301641  0.79282210  0.89049392    -0.03500
C416        C  0.29706192  0.76196302  0.93537050     0.03300
N417        N  0.29168471  0.78690862  0.98433283     0.65800
H418        H  0.29834671  0.68370656  0.97028866     0.14700
H419        H  0.31568754  0.78832465  0.80932486     0.14500
N420        N  0.32469313  0.68668254  0.79664485     0.73600
O421        O  0.26718112  0.78871123  0.00148319    -0.39900
O422        O  0.31171864  0.79525140  0.01522311    -0.39800
O423        O  0.30761343  0.67837739  0.75995253    -0.40500
O424        O  0.35036799  0.68730727  0.78668569    -0.40600
C425        C  0.34384039  0.26171967  0.84628027    -0.12900
C426        C  0.32465573  0.29888325  0.86658397     0.04100
C427        C  0.29773000  0.28088315  0.87727244    -0.08200
C428        C  0.29130423  0.22650514  0.87408310    -0.08900
C429        C  0.31144407  0.18908909  0.85901813    -0.03500
C430        C  0.33744460  0.20766835  0.84172641     0.03300
N431        N  0.35831098  0.17187252  0.82272359     0.65800
H432        H  0.36476018  0.27367567  0.83782510     0.14700
H433        H  0.27073849  0.21336989  0.88504636     0.14500
N434        N  0.27727660  0.31654848  0.89580237     0.73600
O435        O  0.36061618  0.16416073  0.77413756    -0.39900
O436        O  0.37256247  0.14419461  0.85447585    -0.39800
O437        O  0.25955641  0.33526309  0.86398551    -0.40500
O438        O  0.27347159  0.31998821  0.94444081    -0.40600
C439        C  0.42664058  0.56482144  0.76682397    -0.12900
C440        C  0.44467758  0.59376871  0.79929720     0.04100
C441        C  0.46345232  0.62957525  0.77639297    -0.08200
C442        C  0.46562671  0.63280080  0.72150356    -0.08900
C443        C  0.44850798  0.60174639  0.68900152    -0.03500
C444        C  0.42808762  0.56949240  0.71202987     0.03300
N445        N  0.40804956  0.54309744  0.68006157     0.65800
H446        H  0.41118341  0.53903455  0.78411122     0.14700
H447        H  0.48054803  0.65970596  0.70420955     0.14500
N448        N  0.47888066  0.66531391  0.80858009     0.73600
O449        O  0.41475771  0.50104257  0.65639761    -0.39900
O450        O  0.38610515  0.56757704  0.66676161    -0.39800
O451        O  0.49798237  0.64728671  0.83779748    -0.40500
O452        O  0.97342305  0.70582219  0.81536962    -0.40600
C453        C  0.42821651  0.63327311  0.21704012    -0.12900
C454        C  0.44059295  0.58960329  0.19203421     0.04100
C455        C  0.45181478  0.54810852  0.22413844    -0.08200
C456        C  0.44569682  0.54763562  0.27821649    -0.08900
C457        C  0.43599224  0.59337424  0.30346364    -0.03500
C458        C  0.42647695  0.63630307  0.27187915     0.03300
N459        N  0.41640872  0.68465892  0.29436093     0.65800
H460        H  0.42137200  0.66653637  0.19413158     0.14700
H461        H  0.45301577  0.51488863  0.30229068     0.14500
N462        N  0.47282944  0.51162326  0.20549176     0.73600
O463        O  0.43222005  0.72448811  0.29634625    -0.39900
O464        O  0.39056073  0.69129400  0.29996428    -0.39800
O465        O  0.48912656  0.52627724  0.16992401    -0.40500
O466        O  0.48090384  0.47376282  0.23448667    -0.40600
C467        C  0.46299742  0.43955820  0.77589023    -0.12900
C468        C  0.44386450  0.40599195  0.80053732     0.04100
C469        C  0.42640183  0.37452651  0.76899650    -0.08200
C470        C  0.42929737  0.37507005  0.71468321    -0.08900
C471        C  0.44965581  0.40592075  0.69014758    -0.03500
C472        C  0.46628883  0.43955616  0.72149244     0.03300
N473        N  0.48767819  0.47179199  0.69980919     0.65800
H474        H  0.47613248  0.46524172  0.79911860     0.14700
H475        H  0.41578853  0.34975344  0.69174534     0.14500
N476        N  0.40554772  0.34142188  0.79095552     0.73600
O477        O  0.48701137  0.52120031  0.70727892    -0.39900
O478        O  0.51087370  0.45052914  0.69123979    -0.39800
O479        O  0.38060493  0.35734155  0.78954186    -0.40500
O480        O  0.41066614  0.29238527  0.79648151    -0.40600
C481        C  0.46594767  0.36436341  0.21570171    -0.12900
C482        C  0.44374391  0.39268993  0.19320291     0.04100
C483        C  0.42339307  0.41520799  0.22619350    -0.08200
C484        C  0.42737924  0.41463051  0.28070738    -0.08900
C485        C  0.45077853  0.38979730  0.30324925    -0.03500
C486        C  0.46901870  0.36044112  0.27057033     0.03300
N487        N  0.48955183  0.32436423  0.29192127     0.65800
H488        H  0.48058218  0.34435491  0.19021996     0.14700
H489        H  0.41215399  0.43385915  0.30556665     0.14500
N490        N  0.39842664  0.43805901  0.20506146     0.73600
O491        O  0.48481967  0.29924516  0.33383544    -0.39900
O492        O  0.50938909  0.30893180  0.26357304    -0.39800
O493        O  0.37640175  0.41103008  0.20544019    -0.40500
O494        O  0.39684952  0.48767078  0.19772515    -0.40600
C495        C  0.19993354  0.70782243  0.86886503    -0.12900
C496        C  0.17790495  0.69391853  0.90169555     0.04100
C497        C  0.16540407  0.73462038  0.93277351    -0.08200
C498        C  0.17587073  0.78643138  0.93182516    -0.08900
C499        C  0.19707444  0.80061515  0.89777582    -0.03500
C500        C  0.20875018  0.76109728  0.86507392     0.03300
N501        N  0.22791412  0.77491964  0.82492223     0.65800
H502        H  0.20900577  0.67806458  0.84342886     0.14700
H503        H  0.16582595  0.81690695  0.95515038     0.14500
N504        N  0.14080572  0.72575115  0.96288697     0.73600
O505        O  0.25241188  0.75709557  0.82781977    -0.39900
O506        O  0.21855031  0.78983738  0.78096318    -0.39800
O507        O  0.14155737  0.73467587  0.01141579    -0.40500
O508        O  0.11754307  0.72808250  0.93980140    -0.40600
C509        C  0.20994110  0.23383825  0.90397891    -0.12900
C510        C  0.19744951  0.20002420  0.86674478     0.04100
C511        C  0.17930097  0.22396666  0.82908350    -0.08200
C512        C  0.17249051  0.27826855  0.83186542    -0.08900
C513        C  0.18372976  0.31087393  0.87054560    -0.03500
C514        C  0.20356687  0.28901305  0.90539666     0.03300
N515        N  0.21392649  0.32100413  0.94729488     0.65800
H516        H  0.22386334  0.21716013  0.93322707     0.14700
H517        H  0.15668349  0.29429670  0.80565026     0.14500
N518        N  0.16640225  0.19360189  0.78868867     0.73600
O519        O  0.20517454  0.31229340  0.99260778    -0.39900
O520        O  0.22475005  0.36560359  0.93786198    -0.39800
O521        O  0.14136767  0.17982446  0.79380849    -0.40500
O522        O  0.17721672  0.19295904  0.74379331    -0.40600
C523        C  0.20563145  0.76743814  0.05626741    -0.12900
C524        C  0.19350369  0.79669171  0.09720388     0.04100
C525        C  0.17902713  0.76852149  0.13638640    -0.08200
C526        C  0.17611128  0.71348422  0.13313729    -0.08900
C527        C  0.18721525  0.68442856  0.09169574    -0.03500
C528        C  0.20359240  0.71128279  0.05409782     0.03300
N529        N  0.21946738  0.68221124  0.01602320     0.65800
H530        H  0.21728684  0.78835327  0.02675813     0.14700
H531        H  0.16449032  0.69324811  0.16269194     0.14500
N532        N  0.16796346  0.79445673  0.18125528     0.73600
O533        O  0.22786949  0.70521562  0.97510960    -0.39900
O534        O  0.23028601  0.63799661  0.02847300    -0.39800
O535        O  0.14236841  0.80585348  0.18253929    -0.40500
O536        O  0.18191388  0.79363851  0.22321916    -0.40600
C537        C  0.18125505  0.20539935  0.06200680    -0.12900
C538        C  0.20362154  0.19132060  0.09380269     0.04100
C539        C  0.21669015  0.23102463  0.12435264    -0.08200
C540        C  0.20774683  0.28454782  0.12050388    -0.08900
C541        C  0.18428412  0.29812501  0.09049199    -0.03500
C542        C  0.17073132  0.25713188  0.06154087     0.03300
N543        N  0.14637894  0.26697499  0.03038914     0.65800
H544        H  0.17056511  0.17499664  0.03973724     0.14700
H545        H  0.21779071  0.31468635  0.14402960     0.14500
N546        N  0.23685126  0.21716280  0.16340205     0.73600
O547        O  0.14805045  0.26221389  0.98136936    -0.39900
O548        O  0.12283678  0.26249919  0.05155152    -0.39800
O549        O  0.26054931  0.23817260  0.16153764    -0.40500
O550        O  0.22853275  0.19847012  0.20646169    -0.40600
C551        C  0.05114989  0.54344944  0.71093201    -0.12900
C552        C  0.05204167  0.59347332  0.68685099     0.04100
C553        C  0.05345552  0.63910268  0.71899378    -0.08200
C554        C  0.05316695  0.63405708  0.77373305    -0.08900
C555        C  0.05128752  0.58405958  0.79769834    -0.03500
C556        C  0.05093520  0.53875753  0.76565862     0.03300
N557        N  0.05254677  0.48756476  0.78870328     0.65800
H558        H  0.05152459  0.50791736  0.68713609     0.14700
H559        H  0.05450248  0.66948059  0.79763005     0.14500
N560        N  0.05586983  0.69096725  0.69688110     0.73600
O561        O  0.57438770  0.48095649  0.81450157    -0.39900
O562        O  0.03011001  0.46395390  0.79836254    -0.39800
O563        O  0.03464502  0.72064537  0.69366823    -0.40500
O564        O  0.07972681  0.71105029  0.69304887    -0.40600
C565        C  0.03185025  0.61585647  0.20853871    -0.12900
C566        C  0.05781465  0.61502192  0.18426442     0.04100
C567        C  0.08187245  0.61810512  0.21668041    -0.08200
C568        C  0.07947370  0.61614332  0.27168107    -0.08900
C569        C  0.05352684  0.60988581  0.29541628    -0.03500
C570        C  0.02977943  0.61132238  0.26305835     0.03300
N571        N  0.00339607  0.60250242  0.28507111     0.65800
H572        H  0.01309822  0.61469967  0.18489241     0.14700
H573        H  0.09807071  0.61765998  0.29575537     0.14500
N574        N  0.10895915  0.62265044  0.19487799     0.73600
O575        O  0.99030831  0.64156044  0.30393609    -0.39900
O576        O  0.99843118  0.55605154  0.30109262    -0.39800
O577        O  0.12046795  0.66749666  0.19640105    -0.40500
O578        O  0.12392173  0.58148543  0.19027558    -0.40600
C579        C  0.07996049  0.36826972  0.78521265    -0.12900
C580        C  0.05567418  0.36124977  0.81477076     0.04100
C581        C  0.03111544  0.34720712  0.78837296    -0.08200
C582        C  0.03003086  0.34882635  0.73305715    -0.08900
C583        C  0.05348987  0.36378716  0.70342586    -0.03500
C584        C  0.07898913  0.37043528  0.73021834     0.03300
N585        N  0.10390437  0.38226687  0.70245121     0.65800
H586        H  0.09947348  0.37647684  0.80494907     0.14700
H587        H  0.01079418  0.33885959  0.71322369     0.14500
N588        N  0.00806617  0.32750484  0.81744124     0.73600
O589        O  0.11039554  0.43028587  0.69504516    -0.39900
O590        O  0.12232883  0.34658241  0.69801552    -0.39800
O591        O  0.49664834  0.35756857  0.84635583    -0.40500
O592        O  0.50866315  0.27823829  0.82167201    -0.40600
C593        C  0.05894880  0.43217590  0.28678185    -0.12900
C594        C  0.06270596  0.38277664  0.31105134     0.04100
C595        C  0.06914914  0.33815326  0.27934711    -0.08200
C596        C  0.06861058  0.34289924  0.22441974    -0.08900
C597        C  0.06297276  0.39197898  0.20038113    -0.03500
C598        C  0.06059161  0.43687874  0.23244840     0.03300
N599        N  0.06087466  0.48809980  0.21001015     0.65800
H600        H  0.05547003  0.46755642  0.31008500     0.14700
H601        H  0.07229614  0.30799370  0.20062785     0.14500
N602        N  0.07499511  0.28720849  0.30181260     0.73600
O603        O  0.03776417  0.50881070  0.19937254    -0.39900
O604        O  0.08231375  0.50317532  0.18601698    -0.39800
O605        O  0.05609713  0.25267167  0.30301710    -0.40500
O606        O  0.09999772  0.27286199  0.30800553    -0.40600
N607        N  0.66359164  0.42669035  0.04815398    -0.06700
N608        N  0.68486988  0.39589252  0.06350127    -0.58900
N609        N  0.63851553  0.39280057  0.93717187    -0.06400
N610        N  0.64272978  0.35055803  0.90809624    -0.61000
N611        N  0.65871289  0.42740499  0.93092449    -0.06000
N612        N  0.67756939  0.40748242  0.89863509    -0.58800
N613        N  0.64037944  0.40138019  0.05863910    -0.05700
N614        N  0.64521515  0.35759783  0.08514275    -0.61300
C615        C  0.67278831  0.35272269  0.08684578     0.95400
C616        C  0.66705314  0.35955086  0.88413227     0.95200
N617        N  0.55537758  0.42353982  0.93947295    -0.06900
N618        N  0.54287617  0.41794176  0.89332698    -0.59400
N619        N  0.57810390  0.39756121  0.06374501    -0.05000
N620        N  0.58148666  0.37460951  0.10992627    -0.60700
N621        N  0.55839612  0.43387654  0.06498965    -0.07000
N622        N  0.54820471  0.43674749  0.11302474    -0.59700
N623        N  0.57574127  0.38867077  0.94304013    -0.04700
N624        N  0.57763130  0.35932424  0.90057979    -0.60800
Mn625      Mn  0.60799328  0.39487156  0.00076337     1.18400
C626        C  0.55679204  0.37693258  0.86981915     0.97500
C627        C  0.56266591  0.39897398  0.14050534     0.98200
N628        N  0.65962453  0.56210544  0.92957095    -0.07000
N629        N  0.68013492  0.59529400  0.91706816    -0.63300
N630        N  0.64050250  0.59307033  0.04366783    -0.05800
N631        N  0.64656138  0.63809237  0.06645853    -0.64000
N632        N  0.66236056  0.56097850  0.04340198    -0.06500
N633        N  0.68416021  0.58597661  0.06358745    -0.63500
N634        N  0.63577656  0.58792355  0.92394776    -0.05400
N635        N  0.63958837  0.63498424  0.90296546    -0.64200
Mn636      Mn  0.66221222  0.49380103  0.98775766     1.10700
C637        C  0.66706347  0.64068280  0.90019324     0.98700
C638        C  0.67362223  0.63377605  0.07859493     0.98800
N639        N  0.55702340  0.55837444  0.05649336    -0.06500
N640        N  0.54561501  0.56382054  0.10338533    -0.61900
N641        N  0.57262614  0.58595492  0.92968835    -0.05800
N642        N  0.57290950  0.60926687  0.88328783    -0.58600
N643        N  0.55364330  0.54870282  0.93150835    -0.07100
N644        N  0.54082455  0.54564078  0.88554835    -0.61400
N645        N  0.57712872  0.59306639  0.05157863    -0.06100
N646        N  0.58006831  0.62196010  0.09433237    -0.58600
Mn647      Mn  0.55430149  0.49109653  0.99811415     1.20200
Mn648      Mn  0.60611081  0.58983810  0.98731467     1.10100
Cl649      Cl  0.60794429  0.49252135  0.99321533    -0.86600
C650        C  0.56010778  0.60401469  0.12652134     0.95700
C651        C  0.55288115  0.58427755  0.85599751     0.95500
N652        N  0.94486951  0.43312708  0.06089561    -0.06700
N653        N  0.95611489  0.43488833  0.10835312    -0.58900
N654        N  0.92652920  0.39721107  0.93558608    -0.06400
N655        N  0.92297064  0.37901287  0.88754039    -0.61000
N656        N  0.94600981  0.43343605  0.93628508    -0.06000
N657        N  0.95607649  0.44026423  0.88881845    -0.58800
N658        N  0.92539744  0.39687219  0.05983824    -0.05700
N659        N  0.92277880  0.37364352  0.10602271    -0.61300
C660        C  0.94229746  0.39707072  0.13580147     0.95400
C661        C  0.94154627  0.40621327  0.85866216     0.95200
N662        N  0.84099627  0.42061924  0.93471676    -0.06900
N663        N  0.82229469  0.39439875  0.90589504    -0.59400
N664        N  0.86214462  0.39129437  0.05499730    -0.05000
N665        N  0.85751433  0.34698144  0.08092546    -0.60700
N666        N  0.83947579  0.42119908  0.05242895    -0.07000
N667        N  0.81863245  0.39493116  0.07468370    -0.59700
N668        N  0.86409946  0.39201379  0.93623725    -0.04700
N669        N  0.86220911  0.34925091  0.90760541    -0.60800
Mn670      Mn  0.89504595  0.39403495  0.99690248     1.18400
C671        C  0.83638465  0.35019096  0.88836706     0.97500
C672        C  0.83054462  0.34925973  0.09370744     0.98200
N673        N  0.94418022  0.55424271  0.93323342    -0.07000
N674        N  0.95634330  0.55225087  0.88683819    -0.63300
N675        N  0.92291283  0.59034792  0.05638405    -0.05800
N676        N  0.91972664  0.61118838  0.10364040    -0.64000
N677        N  0.94281783  0.55454077  0.05734262    -0.06500
N678        N  0.95305031  0.55000260  0.10498045    -0.63500
N679        N  0.92348670  0.58855333  0.93175493    -0.05400
N680        N  0.92101383  0.61017995  0.88468880    -0.64200
Mn681      Mn  0.94589107  0.49390822  0.99713908     1.10700
C682        C  0.94188132  0.58785731  0.85723543     0.98700
C683        C  0.93904377  0.58592136  0.13382592     0.98800
N684        N  0.83796612  0.55769078  0.05246972    -0.06500
N685        N  0.81836360  0.58132112  0.08157340    -0.61900
N686        N  0.85927415  0.58911266  0.93291448    -0.05800
N687        N  0.85278862  0.63420983  0.90945834    -0.58600
N688        N  0.83739346  0.55758683  0.93571275    -0.07100
N689        N  0.81532986  0.58359005  0.91644356    -0.61400
N690        N  0.85982770  0.58910844  0.05067778    -0.06100
N691        N  0.85622349  0.63158105  0.07887332    -0.58600
Mn692      Mn  0.83746282  0.48905825  0.99379409     1.20200
Mn693      Mn  0.89188008  0.58971182  0.99259365     1.10100
Cl694      Cl  0.89181563  0.49179289  0.99509465    -0.86600
C695        C  0.83078649  0.62712747  0.09883206     0.95700
C696        C  0.82555772  0.63082866  0.89880130     0.95500
N697        N  0.71112364  0.06184779  0.28934205    -0.06700
N698        N  0.69661154  0.08848560  0.32507763    -0.58900
N699        N  0.69583116  0.93985851  0.25436298    -0.06400
N700        N  0.67259231  0.91412057  0.26223908    -0.61000
N701        N  0.71046727  0.94378918  0.29819127    -0.06000
N702        N  0.69609923  0.92186303  0.33721384    -0.58800
N703        N  0.69616655  0.05908562  0.24597492    -0.05700
N704        N  0.67258426  0.08498074  0.25065919    -0.61300
C705        C  0.67278205  0.10363423  0.29957583     0.95400
C706        C  0.67271934  0.90270181  0.31351310     0.95200
N707        N  0.72061477  0.92709049  0.09851266    -0.06900
N708        N  0.72059273  0.87955771  0.07623293    -0.59400
N709        N  0.70285908  0.05540550  0.12821493    -0.05000
N710        N  0.69232185  0.10379036  0.13199069    -0.60700
N711        N  0.72319159  0.05424304  0.09405398    -0.07000
N712        N  0.72687567  0.10254893  0.07408114    -0.59700
N713        N  0.70080384  0.93011463  0.13336696    -0.04700
N714        N  0.68684560  0.88514065  0.13540557    -0.60800
Mn715      Mn  0.69880799  0.99558755  0.18942455     1.18400
C716        C  0.69921298  0.85370562  0.09944466     0.97500
C717        C  0.70748678  0.13279280  0.09846404     0.98200
N718        N  0.78134428  0.94332771  0.30920556    -0.07000
N719        N  0.79343591  0.92526857  0.35295389    -0.63300
N720        N  0.79970591  0.05769730  0.25943177    -0.05800
N721        N  0.82214007  0.08557306  0.26801516    -0.64000
N722        N  0.78220443  0.06132333  0.29898554    -0.06500
N723        N  0.79390123  0.09059772  0.33663907    -0.63500
N724        N  0.79904343  0.93837945  0.27008079    -0.05400
N725        N  0.82223404  0.91557100  0.28571512    -0.64200
Mn726      Mn  0.74618127  0.00280499  0.30123406     1.10700
C727        C  0.81889104  0.90764427  0.33704877     0.98700
C728        C  0.81871283  0.10631090  0.31571851     0.98800
N729        N  0.78619310  0.04998615  0.10074464    -0.06500
N730        N  0.78603256  0.09746416  0.07741549    -0.61900
N731        N  0.80140338  0.92452931  0.15140337    -0.05800
N732        N  0.81189648  0.87749655  0.16405278    -0.58600
N733        N  0.78347532  0.92045219  0.11267557    -0.07100
N734        N  0.78110289  0.86959429  0.09914727    -0.61400
N735        N  0.80359295  0.05021844  0.14035010    -0.06100
N736        N  0.81564098  0.09700216  0.14446322    -0.58600
Mn737      Mn  0.75361418  0.98767721  0.09838924     1.20200
Mn738      Mn  0.80104566  0.99253126  0.20409925     1.10100
Cl739      Cl  0.74980782  0.99449948  0.19962562    -0.86600
C740        C  0.80476387  0.12648866  0.10501589     0.95700
C741        C  0.79914074  0.84330540  0.13150728     0.95500
N742        N  0.72111038  0.06621031  0.87866227    -0.06700
N743        N  0.72269729  0.11670897  0.89410075    -0.58900
N744        N  0.70015774  0.93619723  0.85618358    -0.06400
N745        N  0.68835784  0.88899780  0.85418186    -0.61000
N746        N  0.71951161  0.93716939  0.89254466    -0.06000
N747        N  0.72127362  0.88987866  0.91587235    -0.58800
N748        N  0.70170491  0.06187941  0.84264909    -0.05700
N749        N  0.68977188  0.10843616  0.83324592    -0.61300
C750        C  0.70278014  0.14278765  0.86545680     0.95400
C751        C  0.70153515  0.86052720  0.89155910     0.95200
N752        N  0.71353491  0.92101177  0.69634464    -0.06900
N753        N  0.70007898  0.89156350  0.66133156    -0.59400
N754        N  0.69785937  0.04439938  0.72347623    -0.05000
N755        N  0.67416172  0.06705003  0.71029594    -0.60700
N756        N  0.71418233  0.03895552  0.68233436    -0.07000
N757        N  0.70091857  0.05731512  0.64002215    -0.59700
N758        N  0.69786655  0.92576772  0.73839659    -0.04700
N759        N  0.67493226  0.89835169  0.73389362    -0.60800
Mn760      Mn  0.69927035  0.99249761  0.79138774     1.18400
C761        C  0.67625468  0.87674019  0.68626865     0.97500
C762        C  0.67615359  0.07533646  0.65869799     0.98200
N763        N  0.78277592  0.93171399  0.89053594    -0.07000
N764        N  0.78117623  0.88488526  0.91504745    -0.63300
N765        N  0.80323898  0.05204995  0.83920823    -0.05800
N766        N  0.81655937  0.09641201  0.82881120    -0.64000
N767        N  0.78473761  0.05942868  0.87603996    -0.06500
N768        N  0.78488881  0.10987807  0.89087733    -0.63500
N769        N  0.80116486  0.92858739  0.85288239    -0.05400
N770        N  0.81250266  0.88079248  0.85143504    -0.64200
Mn771      Mn  0.75200695  0.99914096  0.88773514     1.10700
C772        C  0.80017256  0.85349614  0.89034350     0.98700
C773        C  0.80515885  0.13220812  0.86140960     0.98800
N774        N  0.78437117  0.03717562  0.68096081    -0.06500
N775        N  0.79533390  0.06231233  0.63999463    -0.61900
N776        N  0.80014613  0.91895900  0.73346461    -0.05800
N777        N  0.82290788  0.89126016  0.72627122    -0.58600
N778        N  0.78413652  0.91854185  0.69134066    -0.07100
N779        N  0.79730015  0.89219764  0.65345738    -0.61400
N780        N  0.80219940  0.03827586  0.72045317    -0.06100
N781        N  0.82466896  0.06457469  0.70788743    -0.58600
Mn782      Mn  0.74903525  0.97876959  0.68541935     1.20200
Mn783      Mn  0.80180888  0.98445396  0.78746970     1.10100
Cl784      Cl  0.75051280  0.98886469  0.78681952    -0.86600
C785        C  0.82031793  0.08000890  0.65824727     0.95700
C786        C  0.82127876  0.87452708  0.67680576     0.95500
N787        N  0.53306671  0.18622098  0.43614213    -0.06700
N788        N  0.54359757  0.14786897  0.40604040    -0.58900
N789        N  0.54859824  0.22136937  0.55968559    -0.06400
N790        N  0.57116738  0.20906759  0.58572629    -0.61000
N791        N  0.53264742  0.17940019  0.55327102    -0.06000
N792        N  0.54607978  0.13659892  0.57220842    -0.58800
N793        N  0.55161306  0.22441931  0.44069157    -0.05700
N794        N  0.57397756  0.21410956  0.41330573    -0.61300
C795        C  0.56894602  0.16699708  0.39128452     0.95400
C796        C  0.57019075  0.15643424  0.59285396     0.95200
N797        N  0.53627670  0.38158008  0.56589366    -0.06900
N798        N  0.53465291  0.39970026  0.61447926    -0.59400
N799        N  0.55566129  0.34461090  0.44147131    -0.05000
N800        N  0.56847050  0.33885543  0.39626567    -0.60700
N801        N  0.53847064  0.38528828  0.43981255    -0.07000
N802        N  0.53941469  0.40833136  0.39313576    -0.59700
N803        N  0.55379147  0.34134764  0.56487725    -0.04700
N804        N  0.56468704  0.33221558  0.61178589    -0.60800
Mn805      Mn  0.55247888  0.28363837  0.50177367     1.18400
C806        C  0.55288028  0.36922019  0.64263812     0.97500
C807        C  0.55841302  0.37904318  0.36645546     0.98200
N808        N  0.96172623  0.19064131  0.55431059    -0.07000
N809        N  0.94710264  0.15029380  0.57361958    -0.63300
N810        N  0.94592719  0.23877851  0.43976582    -0.05800
N811        N  0.92255312  0.23291589  0.41360586    -0.64000
N812        N  0.96145345  0.19523176  0.43783741    -0.06500
N813        N  0.94766747  0.15813721  0.41132400    -0.63500
N814        N  0.94666266  0.23486785  0.55727938    -0.05400
N815        N  0.92264907  0.22537979  0.57958442    -0.63600
Mn816      Mn  0.99695101  0.18560917  0.49612909     1.10700
C817        C  0.92277398  0.17287792  0.58962874     0.98700
C818        C  0.92375025  0.18311860  0.39543498     0.98800
N819        N  0.97397182  0.39230673  0.43594390    -0.06500
N820        N  0.97651957  0.41031705  0.38722586    -0.61900
N821        N  0.95263223  0.36013872  0.56076519    -0.05800
N822        N  0.93921153  0.36183556  0.60559234    -0.58600
N823        N  0.97256346  0.39546814  0.56030983    -0.07100
N824        N  0.97324025  0.42162187  0.60508182    -0.61400
N825        N  0.95271664  0.35969778  0.43847519    -0.06100
N826        N  0.94019072  0.35592457  0.39258798    -0.58600
Mn827      Mn  0.00527174  0.39149681  0.50118488     1.20200
Mn828      Mn  0.94935642  0.29933692  0.49976336     1.10100
Cl829      Cl  0.00075789  0.28943138  0.50005491    -0.86600
C830        C  0.95492022  0.38789908  0.36097996     0.95700
C831        C  0.95219482  0.40047138  0.63303283     0.95500
N832        N  0.53258153  0.60334072  0.42779900    -0.06700
N833        N  0.53219586  0.58325377  0.37999345    -0.58900
N834        N  0.55140637  0.63728671  0.55375515    -0.06400
N835        N  0.56249150  0.64159864  0.60099129    -0.61000
N836        N  0.53327562  0.59841471  0.55269590    -0.06000
N837        N  0.53201510  0.57529799  0.59933688    -0.58800
N838        N  0.55148626  0.64075006  0.43025427    -0.05700
N839        N  0.56420842  0.64649926  0.38480112    -0.61300
C840        C  0.55218906  0.61025163  0.35343244     0.95400
C841        C  0.55043936  0.60245696  0.62907408     0.95200
N842        N  0.53513563  0.80075866  0.55434771    -0.06900
N843        N  0.54678518  0.83968628  0.58183312    -0.59400
N844        N  0.55086189  0.76283786  0.43518246    -0.05000
N845        N  0.57247591  0.77292067  0.40572534    -0.60700
N846        N  0.53367444  0.80406802  0.43673403    -0.07000
N847        N  0.54453720  0.84402998  0.40931460    -0.59700
N848        N  0.55238647  0.75970257  0.55288109    -0.04700
N849        N  0.57513097  0.76903667  0.57974533    -0.60800
Mn850      Mn  0.55181101  0.69919621  0.49307488     1.18400
C851        C  0.57150312  0.81834297  0.59809511     0.97500
C852        C  0.56842429  0.82304416  0.38915819     0.98200
N853        N  0.96860986  0.59491144  0.55634779    -0.07000
N854        N  0.97064900  0.57409880  0.60409419    -0.63300
N855        N  0.94688400  0.63541403  0.43367446    -0.05800
N856        N  0.93133753  0.63726006  0.39089474    -0.64000
N857        N  0.96553420  0.59721980  0.43107188    -0.06500
N858        N  0.96274509  0.57186403  0.38600078    -0.63500
N859        N  0.94913424  0.63175617  0.55576938    -0.05400
N860        N  0.93735386  0.63623072  0.60207009    -0.64200
Mn861      Mn  0.99955439  0.59355925  0.49155555     1.10700
C862        C  0.95062164  0.59977523  0.63178160     0.98700
C863        C  0.94115386  0.59711849  0.36119995     0.98800
N864        N  0.96148980  0.80079429  0.44299327    -0.06500
N865        N  0.94647307  0.84288342  0.42753472    -0.61900
N866        N  0.94808260  0.75205495  0.55807014    -0.05800
N867        N  0.92617849  0.75861673  0.58768507    -0.58600
N868        N  0.96419270  0.79434622  0.55893537    -0.07100
N869        N  0.95208787  0.83179381  0.58787376    -0.61400
N870        N  0.94577629  0.75790220  0.43999876    -0.06100
N871        N  0.92118146  0.76958376  0.42067834    -0.58600
Mn872      Mn  0.99823116  0.80038220  0.49864825     1.20200
Mn873      Mn  0.94761938  0.69347345  0.49637108     1.10100
Cl874      Cl  0.99909891  0.69667915  0.49445484    -0.86600
C875        C  0.92133506  0.82228440  0.41369618     0.95700
C876        C  0.92875867  0.80779684  0.60664067     0.95500
C877        C  0.86390879  0.82161293  0.68509191    -0.12900
C878        C  0.84701275  0.85353354  0.65243963     0.04100
C879        C  0.85878099  0.87526253  0.60656840    -0.08200
C880        C  0.88697536  0.86510217  0.59488260    -0.08900
C881        C  0.90377384  0.83365711  0.62829968    -0.03500
C882        C  0.89183136  0.81184394  0.67370680     0.03300
N883        N  0.90788628  0.77936912  0.70886430     0.65800
H884        H  0.85556729  0.80556614  0.72122918     0.14700
H885        H  0.89536980  0.87952152  0.55817703     0.14500
N886        N  0.84258858  0.90749807  0.57155207     0.73600
O887        O  0.91954961  0.80076949  0.74772663    -0.39900
O888        O  0.90476308  0.72954073  0.70849666    -0.39800
O889        O  0.84593236  0.95725815  0.57118576    -0.40500
O890        O  0.83037494  0.88579298  0.53346676    -0.40600
C891        C  0.60195372  0.83102042  0.67381475    -0.12900
C892        C  0.59517815  0.84581676  0.62254453     0.04100
C893        C  0.61602296  0.86870016  0.59102062    -0.08200
C894        C  0.64303449  0.87597723  0.61090032    -0.08900
C895        C  0.65007000  0.85872539  0.66152365    -0.03500
C896        C  0.62917434  0.83528708  0.69281882     0.03300
N897        N  0.63562273  0.81277196  0.74302289     0.65800
H898        H  0.58636489  0.81278704  0.69832474     0.14700
H899        H  0.65843401  0.89547676  0.58676068     0.14500
N900        N  0.61047975  0.88207671  0.53771446     0.73600
O901        O  0.62796510  0.83666729  0.78387768    -0.39900
O902        O  0.64244137  0.76424214  0.74602000    -0.39800
O903        O  0.60624983  0.93015831  0.52536456    -0.40500
O904        O  0.61655213  0.84886518  0.50263647    -0.40600
C905        C  0.86885134  0.06883584  0.62947844    -0.12900
C906        C  0.84409388  0.09912602  0.62708812     0.04100
C907        C  0.84527500  0.15162662  0.60841927    -0.08200
C908        C  0.87105340  0.17381461  0.59575061    -0.08900
C909        C  0.89620189  0.14470787  0.60111602    -0.03500
C910        C  0.89470571  0.09083830  0.61642576     0.03300
N911        N  0.91917414  0.05879556  0.62233000     0.65800
H912        H  0.86834255  0.02853551  0.64484399     0.14700
H913        H  0.87125732  0.21494151  0.58282213     0.14500
N914        N  0.82090071  0.18437581  0.60593581     0.73600
O915        O  0.92974748  0.05277564  0.66731186    -0.39900
O916        O  0.92551957  0.02644118  0.58662861    -0.39800
O917        O  0.81627191  0.21712025  0.64221711    -0.40500
O918        O  0.80845577  0.19021018  0.56265585    -0.40600
C919        C  0.62165643  0.15721122  0.59187064    -0.12900
C920        C  0.59718478  0.12797037  0.60224078     0.04100
C921        C  0.60015681  0.07606009  0.62255203    -0.08200
C922        C  0.62691240  0.05691370  0.63603932    -0.08900
C923        C  0.65092250  0.08798792  0.62792947    -0.03500
C924        C  0.64813593  0.13733636  0.60310921     0.03300
N925        N  0.67178627  0.16972416  0.59255381     0.65800
H926        H  0.62053193  0.19684176  0.57505045     0.14700
H927        H  0.62882128  0.01877247  0.65584669     0.14500
N928        N  0.57647137  0.04412874  0.63382667     0.73600
O929        O  0.68273798  0.16778063  0.54780721    -0.39900
O930        O  0.67680999  0.20891529  0.62173032    -0.39800
O931        O  0.57050980  0.00618958  0.60368593    -0.40500
O932        O  0.56637355  0.04490422  0.67931794    -0.40600
C933        C  0.84369704  0.85193226  0.40330808    -0.12900
C934        C  0.84359251  0.89622220  0.37027302     0.04100
C935        C  0.86924328  0.92135381  0.35867717    -0.08200
C936        C  0.89449046  0.89924315  0.37637743    -0.08900
C937        C  0.89478143  0.85204682  0.40538250    -0.03500
C938        C  0.86891257  0.82976480  0.42111518     0.03300
N939        N  0.86783720  0.78260086  0.45265365     0.65800
H940        H  0.82432938  0.83210433  0.41220666     0.14700
H941        H  0.91391977  0.91717810  0.36456431     0.14500
N942        N  0.87003222  0.96736845  0.32554603     0.73600
O943        O  0.87619368  0.78339004  0.49955449    -0.39900
O944        O  0.85959567  0.73949080  0.43292978    -0.39800
O945        O  0.85704496  0.00902063  0.33830827    -0.40500
O946        O  0.88186656  0.96508505  0.28161785    -0.40600
C947        C  0.63219344  0.84390977  0.30878652    -0.12900
C948        C  0.64699876  0.88150887  0.33786250     0.04100
C949        C  0.63354917  0.90549951  0.38082489    -0.08200
C950        C  0.60594372  0.89129520  0.39327494    -0.08900
C951        C  0.59185341  0.85183241  0.36493056    -0.03500
C952        C  0.60530207  0.82863313  0.32178330     0.03300
N953        N  0.59184819  0.78912100  0.29076411     0.65800
H954        H  0.64168084  0.82602505  0.27411421     0.14700
H955        H  0.59597992  0.90911206  0.42696596     0.14500
N956        N  0.64738723  0.94453969  0.41159429     0.73600
O957        O  0.57944195  0.80312914  0.24921723    -0.39900
O958        O  0.59824587  0.74075949  0.29739968    -0.39800
O959        O  0.64026713  0.99274216  0.40730804    -0.40500
O960        O  0.66228032  0.92991226  0.44993198    -0.40600
C961        C  0.87920152  0.13461852  0.40961728    -0.12900
C962        C  0.89817719  0.15807197  0.37462942     0.04100
C963        C  0.88902552  0.17028299  0.32360545    -0.08200
C964        C  0.86209642  0.15696483  0.30766365    -0.08900
C965        C  0.84324988  0.13155736  0.34150698    -0.03500
C966        C  0.85191742  0.12129694  0.39360004     0.03300
N967        N  0.83358560  0.09744001  0.43059381     0.65800
H968        H  0.88534155  0.12801834  0.45005005     0.14700
H969        H  0.85608528  0.16548615  0.26748360     0.14500
N970        N  0.90684459  0.19662322  0.28729076     0.73600
O971        O  0.83600679  0.04845073  0.44088368    -0.39900
O972        O  0.82041907  0.12698223  0.46180749    -0.39800
O973        O  0.91812200  0.17005739  0.25126678    -0.40500
O974        O  0.90599611  0.24672147  0.28373956    -0.40600
C975        C  0.59716653  0.14666382  0.31310742    -0.12900
C976        C  0.59225695  0.13786031  0.36645425     0.04100
C977        C  0.61465604  0.11971369  0.39810779    -0.08200
C978        C  0.64112256  0.11099085  0.37666356    -0.08900
C979        C  0.64618106  0.12111541  0.32377076    -0.03500
C980        C  0.62388254  0.13993288  0.29193827     0.03300
N981        N  0.62848956  0.15552534  0.23869263     0.65800
H982        H  0.58079434  0.16319361  0.28859571     0.14700
H983        H  0.65782533  0.09666465  0.40176673     0.14500
N984        N  0.61176088  0.11617657  0.45345041     0.73600
O985        O  0.61767008  0.12942540  0.20184471    -0.39900
O986        O  0.64520132  0.19263063  0.22836394    -0.39800
O987        O  0.60654431  0.07180865  0.47443000    -0.40500
O988        O  0.62155853  0.15309097  0.48100678    -0.40600
C989        C  0.83107132  0.76696288  0.14559252    -0.12900
C990        C  0.80411257  0.78447175  0.13392082     0.04100
C991        C  0.78311171  0.74516201  0.12896532    -0.08200
C992        C  0.79106904  0.69162129  0.11833593    -0.08900
C993        C  0.81880539  0.67536098  0.12459943    -0.03500
C994        C  0.83788622  0.71283874  0.14496962     0.03300
N995        N  0.86495524  0.69641695  0.16241496     0.65800
H996        H  0.84699924  0.79548451  0.15574814     0.14700
H997        H  0.77567320  0.66268173  0.10669617     0.14500
N998        N  0.75489939  0.75619336  0.14407130     0.73600
O999        O  0.88624237  0.72089167  0.14690725    -0.39900
O1000       O  0.86764971  0.65551489  0.19096373    -0.39800
O1001       O  0.74886474  0.79947554  0.16634354    -0.40500
O1002       O  0.73854499  0.71765280  0.15000588    -0.40600
C1003       C  0.82046193  0.21121318  0.14593011    -0.12900
C1004       C  0.80809953  0.18579269  0.10273124     0.04100
C1005       C  0.79841649  0.21807310  0.06084993    -0.08200
C1006       C  0.80250854  0.27360186  0.06180560    -0.08900
C1007       C  0.81611898  0.29827870  0.10389344    -0.03500
C1008       C  0.82433018  0.26646287  0.14692199     0.03300
N1009       N  0.83730862  0.28956262  0.19171467     0.65800
H1010       H  0.82734825  0.18813331  0.17958972     0.14700
H1011       H  0.79731852  0.29688797  0.02731714     0.14500
N1012       N  0.78686631  0.19488514  0.01492362     0.73600
O1013       O  0.82237701  0.30309984  0.22996016    -0.39900
O1014       O  0.86314390  0.28345324  0.19852372    -0.39800
O1015       O  0.76140494  0.20165940  0.00454976    -0.40500
O1016       O  0.80304540  0.17851907  0.97973028    -0.40600
C1017       C  0.80047273  0.70761698  0.93745466    -0.12900
C1018       C  0.80968807  0.68126866  0.89205811     0.04100
C1019       C  0.81349954  0.71163584  0.84624505    -0.08200
C1020       C  0.80979738  0.76693520  0.84706153    -0.08900
C1021       C  0.80199873  0.79397806  0.89290635    -0.03500
C1022       C  0.79686867  0.76348552  0.93835798     0.03300
N1023       N  0.79242027  0.78893037  0.98738058     0.65800
H1024       H  0.79902800  0.68555982  0.97394056     0.14700
H1025       H  0.81345524  0.78892789  0.81116166     0.14500
N1026       N  0.82277228  0.68728477  0.79897860     0.73600
O1027       O  0.76871250  0.78744742  0.00806270    -0.39900
O1028       O  0.81319798  0.80129653  0.01498183    -0.39800
O1029       O  0.80509828  0.67618154  0.76408102    -0.40500
O1030       O  0.84811801  0.69014699  0.78677348    -0.40600
C1031       C  0.84481057  0.26139925  0.84883134    -0.12900
C1032       C  0.82526668  0.29923485  0.86676453     0.04100
C1033       C  0.79801958  0.28188970  0.87539753    -0.08200
C1034       C  0.79140959  0.22761270  0.87208545    -0.08900
C1035       C  0.81177212  0.18966326  0.85944694    -0.03500
C1036       C  0.83835349  0.20738013  0.84476403     0.03300
N1037       N  0.85973922  0.17067783  0.82974265     0.65800
H1038       H  0.86604862  0.27279782  0.84239417     0.14700
H1039       H  0.77054483  0.21491285  0.88145413     0.14500
N1040       N  0.77746395  0.31797740  0.89280649     0.73600
O1041       O  0.86414399  0.16192346  0.78186849    -0.39900
O1042       O  0.87226356  0.14315980  0.86409505    -0.39800
O1043       O  0.75985244  0.33605407  0.86042916    -0.40500
O1044       O  0.77375996  0.32326205  0.94131738    -0.40600
C1045       C  0.92471410  0.56554433  0.76775635    -0.12900
C1046       C  0.94403977  0.59205519  0.79962704     0.04100
C1047       C  0.96405977  0.62483918  0.77616310    -0.08200
C1048       C  0.96602946  0.62737232  0.72125757    -0.08900
C1049       C  0.94772825  0.59815681  0.68938490    -0.03500
C1050       C  0.92614428  0.56930428  0.71293867     0.03300
N1051       N  0.90497481  0.54559125  0.68147640     0.65800
H1052       H  0.90834160  0.54229839  0.78552766     0.14700
H1053       H  0.98186240  0.65193864  0.70346893     0.14500
N1054       N  0.98107914  0.65835354  0.80782373     0.73600
O1055       O  0.90946757  0.50127732  0.66004360    -0.39900
O1056       O  0.88450300  0.57357398  0.66653793    -0.39800
O1057       O  0.99871310  0.63758426  0.83852158    -0.40500
O1058       O  0.46875809  0.71072227  0.81797930    -0.40600
C1059       C  0.92766880  0.63189587  0.21759664    -0.12900
C1060       C  0.93973135  0.58793068  0.19258885     0.04100
C1061       C  0.95048779  0.54598845  0.22466290    -0.08200
C1062       C  0.94405782  0.54536737  0.27858631    -0.08900
C1063       C  0.93487555  0.59143445  0.30390269    -0.03500
C1064       C  0.92593499  0.63490126  0.27242131     0.03300
N1065       N  0.91685861  0.68389589  0.29502791     0.65800
H1066       H  0.92122719  0.66568051  0.19461808     0.14700
H1067       H  0.95105777  0.51231650  0.30264782     0.14500
N1068       N  0.97173689  0.50977054  0.20649444     0.73600
O1069       O  0.93361497  0.72223380  0.29779320    -0.39900
O1070       O  0.89115000  0.69279985  0.29996329    -0.39800
O1071       O  0.98811278  0.52455566  0.17112327    -0.40500
O1072       O  0.98001580  0.47252814  0.23603462    -0.40600
C1073       C  0.96183889  0.44024168  0.77609356    -0.12900
C1074       C  0.94255008  0.40695285  0.80057185     0.04100
C1075       C  0.92464364  0.37656450  0.76883582    -0.08200
C1076       C  0.92729689  0.37787174  0.71445392    -0.08900
C1077       C  0.94797410  0.40807444  0.69008750    -0.03500
C1078       C  0.96498277  0.44075851  0.72170177     0.03300
N1079       N  0.98701487  0.47160319  0.70047790     0.65800
H1080       H  0.97540517  0.46497234  0.79946338     0.14700
H1081       H  0.91352188  0.35324375  0.69134418     0.14500
N1082       N  0.90392511  0.34304471  0.79062136     0.73600
O1083       O  0.98764468  0.52069447  0.70954734    -0.39900
O1084       O  0.00968543  0.44850016  0.69172252    -0.39800
O1085       O  0.87906675  0.35946787  0.79097070    -0.40500
O1086       O  0.90876373  0.29367936  0.79325507    -0.40600
C1087       C  0.96707522  0.36386315  0.21523743    -0.12900
C1088       C  0.94406748  0.39018657  0.19328197     0.04100
C1089       C  0.92317183  0.40992914  0.22675212    -0.08200
C1090       C  0.92734971  0.40917486  0.28117874    -0.08900
C1091       C  0.95149668  0.38670296  0.30326495    -0.03500
C1092       C  0.97042208  0.35948330  0.27007872     0.03300
N1093       N  0.99191234  0.32496750  0.29068495     0.65800
H1094       H  0.98218208  0.34587793  0.18928969     0.14700
H1095       H  0.91166183  0.42649307  0.30637172     0.14500
N1096       N  0.89753528  0.43044410  0.20622778     0.73600
O1097       O  0.98880808  0.30168900  0.33415535    -0.39900
O1098       O  0.01090313  0.30867734  0.26078611    -0.39800
O1099       O  0.87640080  0.40093811  0.20613173    -0.40500
O1100       O  0.89434231  0.48004515  0.20084246    -0.40600
C1101       C  0.70000811  0.71063960  0.86839856    -0.12900
C1102       C  0.67874213  0.69546632  0.90249486     0.04100
C1103       C  0.66645660  0.73530713  0.93496550    -0.08200
C1104       C  0.67653853  0.78743015  0.93423908    -0.08900
C1105       C  0.69688346  0.80284719  0.89889487    -0.03500
C1106       C  0.70820920  0.76428984  0.86472887     0.03300
N1107       N  0.72602732  0.77967681  0.82292265     0.65800
H1108       H  0.70875431  0.68166542  0.84172599     0.14700
H1109       H  0.66669199  0.81725373  0.95864124     0.14500
N1110       N  0.64226958  0.72543584  0.96599832     0.73600
O1111       O  0.75117638  0.76543445  0.82430085    -0.39900
O1112       O  0.71531238  0.79307092  0.77958253    -0.39800
O1113       O  0.64322580  0.73567316  0.01426044    -0.40500
O1114       O  0.61880078  0.72599878  0.94359507    -0.40600
C1115       C  0.71011148  0.23613793  0.90107605    -0.12900
C1116       C  0.69759714  0.20218409  0.86406527     0.04100
C1117       C  0.67946446  0.22589771  0.82624677    -0.08200
C1118       C  0.67254494  0.28015274  0.82893403    -0.08900
C1119       C  0.68372594  0.31286755  0.86759981    -0.03500
C1120       C  0.70368102  0.29123546  0.90238813     0.03300
N1121       N  0.71433230  0.32341300  0.94392313     0.65800
H1122       H  0.72408981  0.21961961  0.93031349     0.14700
H1123       H  0.65670222  0.29602884  0.80270578     0.14500
N1124       N  0.66669991  0.19534607  0.78583376     0.73600
O1125       O  0.70756578  0.31278601  0.99012797    -0.39900
O1126       O  0.72471776  0.36837252  0.93430820    -0.39800
O1127       O  0.64177887  0.18089256  0.79106537    -0.40500
O1128       O  0.67743408  0.19513975  0.74086910    -0.40600
C1129       C  0.70686188  0.76569842  0.05502353    -0.12900
C1130       C  0.69438491  0.79521636  0.09534415     0.04100
C1131       C  0.67986469  0.76708907  0.13460338    -0.08200
C1132       C  0.67773793  0.71202161  0.13215252    -0.08900
C1133       C  0.68892068  0.68267304  0.09121300    -0.03500
C1134       C  0.70516887  0.70950425  0.05327769     0.03300
N1135       N  0.72087912  0.68040872  0.01494787     0.65800
H1136       H  0.71838697  0.78677690  0.02498779     0.14700
H1137       H  0.66567237  0.69112707  0.16279367     0.14500
N1138       N  0.66741504  0.79344032  0.17783707     0.73600
O1139       O  0.72959750  0.70367586  0.97439695    -0.39900
O1140       O  0.73103058  0.63540847  0.02657138    -0.39800
O1141       O  0.64166588  0.80357734  0.17646998    -0.40500
O1142       O  0.68008483  0.79316383  0.22121835    -0.40600
C1143       C  0.68099585  0.20499343  0.05815530    -0.12900
C1144       C  0.70284627  0.19032290  0.09097273     0.04100
C1145       C  0.71573443  0.22960153  0.12226562    -0.08200
C1146       C  0.70714976  0.28329354  0.11828994    -0.08900
C1147       C  0.68429151  0.29755712  0.08697970    -0.03500
C1148       C  0.67091283  0.25706602  0.05713793     0.03300
N1149       N  0.64706015  0.26767132  0.02488135     0.65800
H1150       H  0.67041284  0.17489716  0.03531170     0.14700
H1151       H  0.71700973  0.31306912  0.14253418     0.14500
N1152       N  0.73553857  0.21521682  0.16175206     0.73600
O1153       O  0.64932865  0.26248761  0.97600237    -0.39900
O1154       O  0.62320594  0.26401507  0.04495136    -0.39800
O1155       O  0.75954340  0.23488336  0.15980654    -0.40500
O1156       O  0.72682309  0.19765158  0.20498503    -0.40600
C1157       C  0.55104965  0.54858279  0.71119352    -0.12900
C1158       C  0.55164703  0.59862809  0.68714835     0.04100
C1159       C  0.55224975  0.64429728  0.71930954    -0.08200
C1160       C  0.55199572  0.63922441  0.77407146    -0.08900
C1161       C  0.55067031  0.58912999  0.79798391    -0.03500
C1162       C  0.55072215  0.54385275  0.76588868     0.03300
N1163       N  0.55266830  0.49266050  0.78885322     0.65800
H1164       H  0.55180830  0.51305995  0.68740570     0.14700
H1165       H  0.55292202  0.67467032  0.79800776     0.14500
N1166       N  0.55374354  0.69626131  0.69716687     0.73600
O1167       O  0.07432807  0.47524123  0.81388242    -0.39900
O1168       O  0.53041515  0.46809072  0.79766148    -0.39800
O1169       O  0.53206518  0.72475530  0.69440813    -0.40500
O1170       O  0.57725125  0.71767719  0.69303126    -0.40600
C1171       C  0.53279089  0.61727769  0.20813435    -0.12900
C1172       C  0.55868760  0.61724086  0.18361704     0.04100
C1173       C  0.58276772  0.62127517  0.21584151    -0.08200
C1174       C  0.58051422  0.61961336  0.27091087    -0.08900
C1175       C  0.55468937  0.61254089  0.29493264    -0.03500
C1176       C  0.53089745  0.61268059  0.26267775     0.03300
N1177       N  0.50467614  0.60283513  0.28488385     0.65800
H1178       H  0.51399876  0.61550632  0.18466109     0.14700
H1179       H  0.59913989  0.62210254  0.29481533     0.14500
N1180       N  0.60972812  0.62670973  0.19373347     0.73600
O1181       O  0.49127667  0.64146703  0.30380926    -0.39900
O1182       O  0.50023713  0.55621593  0.30107329    -0.39800
O1183       O  0.62083207  0.67196684  0.19481958    -0.40500
O1184       O  0.62497347  0.58600210  0.18856891    -0.40600
C1185       C  0.58056477  0.37495429  0.78308714    -0.12900
C1186       C  0.55639351  0.36592963  0.81246088     0.04100
C1187       C  0.53228030  0.34952290  0.78603843    -0.08200
C1188       C  0.53138493  0.35017360  0.73073250    -0.08900
C1189       C  0.55456121  0.36676113  0.70117934    -0.03500
C1190       C  0.57972343  0.37646568  0.72808278     0.03300
N1191       N  0.60433212  0.39061534  0.70039396     0.65800
H1192       H  0.59980069  0.38494054  0.80296474     0.14700
H1193       H  0.51248587  0.33826613  0.71081714     0.14500
N1194       N  0.50968323  0.32799465  0.81512652     0.73600
O1195       O  0.60967940  0.43920816  0.69326013    -0.39900
O1196       O  0.62357895  0.35658899  0.69576743    -0.39800
O1197       O  0.99559383  0.35817155  0.84845035    -0.40500
O1198       O  0.00599475  0.27790331  0.82414152    -0.40600
C1199       C  0.55969040  0.43318577  0.28527095    -0.12900
C1200       C  0.56277430  0.38343306  0.30914048     0.04100
C1201       C  0.56862320  0.33879015  0.27709362    -0.08200
C1202       C  0.56805964  0.34394161  0.22222393    -0.08900
C1203       C  0.56316284  0.39347764  0.19857418    -0.03500
C1204       C  0.56142349  0.43825751  0.23097673     0.03300
N1205       N  0.56209105  0.48965028  0.20892226     0.65800
H1206       H  0.55666151  0.46851294  0.30886579     0.14700
H1207       H  0.57131236  0.30907071  0.19816448     0.14500
N1208       N  0.57440269  0.28767098  0.29918710     0.73600
O1209       O  0.53913683  0.51069563  0.19770203    -0.39900
O1210       O  0.58381732  0.50481911  0.18590404    -0.39800
O1211       O  0.55523940  0.25374381  0.30159045    -0.40500
O1212       O  0.59937793  0.27248452  0.30348405    -0.40600
loop_ 
_geom_bond_atom_site_label_1 
_geom_bond_atom_site_label_2 
_geom_bond_distance 
_geom_bond_site_symmetry_2 
_ccdc_geom_bond_type 
N1            N2   1.335       .  A
N1            N7   1.317       .  A
N1          Mn30   2.281   1_554  S
N2            C9   1.370       .  A
N3            N5   1.318       .  A
N3            N4   1.313       .  A
N3          Mn19   2.192   1_556  S
N4           C10   1.342       .  A
N5            N6   1.327       .  A
N5          Mn30   2.229       .  S
N6           C10   1.363       .  A
N7            N8   1.307       .  A
N7          Mn19   2.152       .  S
N8            C9   1.331       .  A
C9          C541   1.490       .  S
C10         C513   1.481       .  S
N11          N17   1.311       .  A
N11          N12   1.329       .  A
N11         Mn41   2.268       .  S
N12          C20   1.368       .  A
N13          N14   1.319       .  A
N13          N15   1.311       .  A
N13         Mn19   2.162       .  S
N14          C21   1.344       .  A
N15          N16   1.326       .  A
N15         Mn41   2.236   1_554  S
N16          C21   1.363       .  A
N17          N18   1.318       .  A
N17         Mn19   2.146   1_556  S
N18          C20   1.343       .  A
Mn19        Cl43   2.459   1_554  S
C20         C580   1.494       .  S
C21         C597   1.490       .  S
N22          N23   1.334       .  A
N22          N28   1.320       .  A
N22         Mn30   2.267       .  S
N23          C31   1.365       .  A
N24          N26   1.320       .  A
N24          N25   1.309       .  A
N24         Mn42   2.187   1_554  S
N25          C32   1.339       .  A
N26          N27   1.329       .  A
N26         Mn30   2.221   1_554  S
N27          C32   1.359       .  A
N28          N29   1.310       .  A
N28         Mn42   2.161       .  S
N29          C31   1.332       .  A
Mn30        Cl43   2.615       .  S
C31         C496   1.491       .  S
C32         C527   1.475       .  S
N33          N34   1.327       .  A
N33          N39   1.312       .  A
N33         Mn41   2.264   1_554  S
N34          C44   1.366       .  A
N35          N36   1.319       .  A
N35          N37   1.313       .  A
N35         Mn42   2.176       .  S
N36          C45   1.346       .  A
N37          N38   1.326       .  A
N37         Mn41   2.229       .  S
N38          C45   1.361       .  A
N39          N40   1.322       .  A
N39         Mn42   2.158   1_554  S
N40          C44   1.345       .  A
Mn41        Cl43   2.584       .  S
Mn42        Cl43   2.451       .  S
C44         C566   1.498       .  S
C45         C555   1.490       .  S
N46          N47   1.325       .  A
N46          N52   1.311       .  A
N46         Mn75   2.224   1_554  S
N47          C54   1.356       .  A
N48          N50   1.311       .  A
N48          N49   1.322       .  A
N48         Mn64   2.186       .  S
N49          C55   1.349       .  A
N50          N51   1.319       .  A
N50         Mn75   2.177       .  S
N51          C55   1.350       .  A
N52          N53   1.321       .  A
N52         Mn64   2.171   1_554  S
N53          C54   1.346       .  A
C54         C482   1.479       .  S
C55         C468   1.485       .  S
N56          N62   1.320       .  A
N56          N57   1.338       .  A
N56         Mn86   2.299       .  S
N57          C65   1.374       .  A
N58          N59   1.313       .  A
N58          N60   1.321       .  A
N58         Mn64   2.175   1_554  S
N59          C66   1.339       .  A
N60          N61   1.333       .  A
N60         Mn86   2.267   1_554  S
N61          C66   1.366       .  A
N62          N63   1.308       .  A
N62         Mn64   2.151       .  S
N63          C65   1.335       .  A
Mn64        Cl88   2.461       .  S
C65         C426   1.498       .  S
C66         C401   1.484       .  S
N67          N68   1.326       .  A
N67          N73   1.312       .  A
N67         Mn75   2.221       .  S
N68          C76   1.355       .  A
N69          N71   1.309       .  A
N69          N70   1.328       .  A
N69         Mn87   2.208   1_554  S
N70          C77   1.357       .  A
N71          N72   1.315       .  A
N71         Mn75   2.176   1_554  S
N72          C77   1.347       .  A
N73          N74   1.322       .  A
N73         Mn87   2.184       .  S
N74          C76   1.349       .  A
Mn75        Cl88   2.603       .  S
C76         C440   1.481       .  S
C77         C454   1.503       .  S
N78          N79   1.341       .  A
N78          N84   1.320       .  A
N78         Mn86   2.293   1_554  S
N79          C89   1.374       .  A
N80          N81   1.313       .  A
N80          N82   1.323       .  A
N80         Mn87   2.179       .  S
N81          C90   1.339       .  A
N82          N83   1.333       .  A
N82         Mn86   2.268       .  S
N83          C90   1.364       .  A
N84          N85   1.302       .  A
N84         Mn87   2.148   1_554  S
N85          C89   1.333       .  A
Mn86        Cl88   2.616       .  S
Mn87        Cl88   2.462       .  S
C89         C387   1.497       .  S
C90         C412   1.482       .  S
N91          N92   1.332       .  A
N91          N97   1.320       .  A
N91        Mn120   2.256       .  S
N92          C99   1.366       .  A
N93          N95   1.324       .  A
N93          N94   1.313       .  A
N93        Mn109   2.177       .  S
N94         C100   1.340       .  A
N95          N96   1.335       .  A
N95        Mn120   2.282   1_565  S
N96         C100   1.366       .  A
N97          N98   1.309       .  A
N97        Mn109   2.159   1_545  S
N98          C99   1.336       .  A
C99         C373   1.489       .  S
C100        C342   1.489       .  S
N101        N107   1.310       .  A
N101        N102   1.325       .  A
N101       Mn131   2.203       .  S
N102        C110   1.356       .  A
N103        N104   1.318       .  A
N103        N105   1.314       .  A
N103       Mn109   2.175   1_545  S
N104        C111   1.343       .  A
N105        N106   1.328       .  A
N105       Mn131   2.216   1_545  S
N106        C111   1.355       .  A
N107        N108   1.319       .  A
N107       Mn109   2.188       .  S
N108        C110   1.352       .  A
Mn109      Cl133   2.465       .  S
C110        C524   1.493       .  S
C111        C538   1.473       .  S
N112        N113   1.333       .  A
N112        N118   1.322       .  A
N112       Mn120   2.260   1_565  S
N113        C121   1.364       .  A
N114        N116   1.321       .  A
N114        N115   1.308       .  A
N114       Mn132   2.170   1_545  S
N115        C122   1.338       .  A
N116        N117   1.338       .  A
N116       Mn120   2.280       .  S
N117        C122   1.370       .  A
N118        N119   1.309       .  A
N118       Mn132   2.163       .  S
N119        C121   1.335       .  A
Mn120      Cl133   2.613   1_545  S
C121        C328   1.482       .  S
C122        C359   1.495       .  S
N123        N124   1.330       .  A
N123        N129   1.309       .  A
N123       Mn131   2.219   1_545  S
N124        C134   1.358       .  A
N125        N126   1.320       .  A
N125        N127   1.313       .  A
N125       Mn132   2.183       .  S
N126        C135   1.347       .  A
N127        N128   1.331       .  A
N127       Mn131   2.238       .  S
N128        C135   1.361       .  A
N129        N130   1.319       .  A
N129       Mn132   2.184   1_545  S
N130        C134   1.350       .  A
Mn131      Cl133   2.602       .  S
Mn132      Cl133   2.465       .  S
C134        C398   1.502       .  S
C135        C384   1.498       .  S
N136        N137   1.333       .  A
N136        N142   1.312       .  A
N136       Mn165   2.247   1_545  S
N137        C144   1.364       .  A
N138        N140   1.312       .  A
N138        N139   1.319       .  A
N138       Mn154   2.171       .  S
N139        C145   1.343       .  A
N140        N141   1.329       .  A
N140       Mn165   2.220       .  S
N141        C145   1.356       .  A
N142        N143   1.320       .  A
N142       Mn154   2.192   1_545  S
N143        C144   1.350       .  A
C144        C510   1.513       .  S
C145        C499   1.479       .  S
N146        N152   1.321       .  A
N146        N147   1.332       .  A
N146       Mn176   2.269       .  S
N147        C155   1.367       .  A
N148        N149   1.311       .  A
N148        N150   1.322       .  A
N148       Mn154   2.163   1_545  S
N149        C156   1.337       .  A
N150        N151   1.331       .  A
N150       Mn176   2.249   1_545  S
N151        C156   1.360       .  A
N152        N153   1.310       .  A
N152       Mn154   2.165       .  S
N153        C155   1.337       .  A
Mn154      Cl178   2.468       .  S
C155        C289   1.483       .  S
C156        C317   1.473       .  S
N157        N158   1.332       .  A
N157        N163   1.312       .  A
N157       Mn165   2.238       .  S
N158        C166   1.361       .  A
N159        N161   1.311       .  A
N159        N160   1.316       .  A
N159       Mn177   2.159   1_545  S
N160        C167   1.345       .  A
N161        N162   1.325       .  A
N161       Mn165   2.214   1_545  S
N162        C167   1.358       .  A
N163        N164   1.316       .  A
N163       Mn177   2.178       .  S
N164        C166   1.347       .  A
Mn165      Cl178   2.594       .  S
C166        C415   1.498       .  S
C167        C429   1.483       .  S
N168        N169   1.333       .  A
N168        N174   1.321       .  A
N168       Mn176   2.259   1_545  S
N169        C179   1.365       .  A
N170        N171   1.306       .  A
N170        N172   1.320       .  A
N170       Mn177   2.154       .  S
N171        C180   1.335       .  A
N172        N173   1.335       .  A
N172       Mn176   2.264       .  S
N173        C180   1.366       .  A
N174        N175   1.312       .  A
N174       Mn177   2.178   1_545  S
N175        C179   1.339       .  A
Mn176      Cl178   2.605       .  S
Mn177      Cl178   2.467       .  S
C179        C300   1.480       .  S
C180        C272   1.483       .  S
N181        N182   1.334       .  A
N181        N187   1.320       .  A
N181       Mn816   2.267   1_455  S
N182        C189   1.367       .  A
N183        N185   1.318       .  A
N183        N184   1.304       .  A
N183       Mn199   2.156       .  S
N184        C190   1.335       .  A
N185        N186   1.337       .  A
N185       Mn816   2.270   1_455  S
N186        C190   1.369       .  A
N187        N188   1.310       .  A
N187       Mn199   2.159       .  S
N188        C189   1.335       .  A
C189        C370   1.480       .  S
C190        C314   1.494       .  S
N191        N197   1.312       .  A
N191        N192   1.327       .  A
N191       Mn827   2.250       .  S
N192        C200   1.361       .  A
N193        N194   1.319       .  A
N193        N195   1.310       .  A
N193       Mn199   2.171       .  S
N194        C201   1.347       .  A
N195        N196   1.324       .  A
N195       Mn827   2.208       .  S
N196        C201   1.357       .  A
N197        N198   1.323       .  A
N197       Mn199   2.169       .  S
N198        C200   1.345       .  A
Mn199      Cl829   2.470       .  S
C200        C583   1.500       .  S
C201        C594   1.484       .  S
N202        N203   1.333       .  A
N202        N208   1.325       .  A
N202       Mn210   2.265       .  S
N203        C211   1.363       .  A
N204        N206   1.322       .  A
N204        N205   1.313       .  A
N204       Mn222   2.169       .  S
N205        C212   1.337       .  A
N206        N207   1.333       .  A
N206       Mn210   2.270       .  S
N207        C212   1.365       .  A
N208        N209   1.313       .  A
N208       Mn222   2.186       .  S
N209        C211   1.342       .  A
Mn210       N787   2.269       .  S
Mn210       N791   2.273       .  S
Mn210      Cl223   2.621       .  S
C211        C303   1.498       .  S
C212        C356   1.481       .  S
N213        N214   1.328       .  A
N213        N219   1.315       .  A
N213       Mn221   2.237       .  S
N214        C224   1.360       .  A
N215        N216   1.318       .  A
N215        N217   1.311       .  A
N215       Mn222   2.192       .  S
N216        C225   1.354       .  A
N217        N218   1.322       .  A
N217       Mn221   2.188       .  S
N218        C225   1.351       .  A
N219        N220   1.319       .  A
N219       Mn222   2.181       .  S
N220        C224   1.344       .  A
Mn221       N797   2.245       .  S
Mn221       N801   2.209       .  S
Mn221      Cl223   2.580       .  S
Mn222      Cl223   2.479       .  S
Cl223      Mn805   2.469       .  S
C224        C485   1.482       .  S
C225        C471   1.485       .  S
N226        N227   1.324       .  A
N226        N232   1.313       .  A
N226       Mn861   2.240   1_455  S
N227        C234   1.362       .  A
N228        N230   1.313       .  A
N228        N229   1.321       .  A
N228       Mn244   2.186       .  S
N229        C235   1.349       .  A
N230        N231   1.325       .  A
N230       Mn861   2.219   1_455  S
N231        C235   1.355       .  A
N232        N233   1.322       .  A
N232       Mn244   2.176       .  S
N233        C234   1.346       .  A
C234        C569   1.498       .  S
C235        C552   1.487       .  S
N236        N242   1.321       .  A
N236        N237   1.332       .  A
N236       Mn872   2.255   1_455  S
N237        C245   1.362       .  A
N238        N239   1.311       .  A
N238        N240   1.322       .  A
N238       Mn244   2.170       .  S
N239        C246   1.338       .  A
N240        N241   1.334       .  A
N240       Mn872   2.276   1_455  S
N241        C246   1.367       .  A
N242        N243   1.312       .  A
N242       Mn244   2.163       .  S
N243        C245   1.338       .  A
Mn244      Cl874   2.483   1_455  S
C245        C286   1.474       .  S
C246        C345   1.485       .  S
N247        N248   1.328       .  A
N247        N253   1.313       .  A
N247       Mn255   2.235       .  S
N248        C256   1.359       .  A
N249        N251   1.311       .  A
N249        N250   1.321       .  A
N249       Mn267   2.175       .  S
N250        C257   1.349       .  A
N251        N252   1.325       .  A
N251       Mn255   2.243       .  S
N252        C257   1.364       .  A
N253        N254   1.320       .  A
N253       Mn267   2.172       .  S
N254        C256   1.344       .  A
Mn255       N832   2.241       .  S
Mn255       N836   2.216       .  S
Mn255      Cl268   2.584       .  S
C256        C443   1.482       .  S
C257        C457   1.502       .  S
N258        N259   1.334       .  A
N258        N264   1.322       .  A
N258       Mn266   2.260       .  S
N259        C269   1.364       .  A
N260        N261   1.309       .  A
N260        N262   1.318       .  A
N260       Mn267   2.162       .  S
N261        C270   1.336       .  A
N262        N263   1.332       .  A
N262       Mn266   2.249       .  S
N263        C270   1.364       .  A
N264        N265   1.309       .  A
N264       Mn267   2.165       .  S
N265        C269   1.335       .  A
Mn266       N842   2.255       .  S
Mn266       N846   2.267       .  S
Mn266      Cl268   2.620       .  S
Mn267      Cl268   2.470       .  S
Cl268      Mn850   2.483       .  S
C269        C331   1.491       .  S
C270        C275   1.472       .  S
C271        C272   1.406       .  A
C271        C276   1.394       .  A
C271        H278   1.085       .  S
C272        C273   1.413       .  A
C273        C274   1.412       .  A
C273        N280   1.428       .  S
C274        C275   1.408       .  A
C274        H279   1.084       .  S
C275        C276   1.406       .  A
C276        N277   1.430       .  S
N277        O281   1.262       .  A
N277        O282   1.262       .  A
N280        O284   1.262       .  A
N280        O283   1.261       .  A
C285        C286   1.395       .  A
C285        C290   1.398       .  A
C285        H292   1.082       .  S
C286        C287   1.413       .  A
C287        C288   1.408       .  A
C287        N294   1.425       .  S
C288        C289   1.402       .  A
C288        H293   1.084       .  S
C289        C290   1.417       .  A
C290        N291   1.430       .  S
N291        O295   1.262       .  A
N291        O296   1.262       .  A
N294        O298   1.261       .  A
N294        O297   1.262       .  A
C299        C300   1.409       .  A
C299        C304   1.407       .  A
C299        H306   1.084       .  S
C300        C301   1.402       .  A
C301        C302   1.401       .  A
C301        N308   1.428       .  S
C302        C303   1.415       .  A
C302        H307   1.083       .  S
C303        C304   1.410       .  A
C304        N305   1.428       .  S
N305        O309   1.262       .  A
N305        O310   1.262       .  A
N308        O312   1.262       .  A
N308        O311   1.262       .  A
C313        C314   1.417       .  A
C313        C318   1.392       .  A
C313        H320   1.083       .  S
C314        C315   1.407       .  A
C315        C316   1.410       .  A
C315        N322   1.427       .  S
C316        C317   1.414       .  A
C316        H321   1.084       .  S
C317        C318   1.394       .  A
C318        N319   1.429       .  S
N319        O323   1.262       .  A
N319        O324   1.262       .  A
N322        O326   1.262       .  A
N322        O325   1.262       .  A
C327        C328   1.392       .  A
C327        C332   1.403       .  A
C327        H334   1.084       .  S
C328        C329   1.420       .  A
C329        C330   1.405       .  A
C329        N336   1.429       .  S
C330        C331   1.396       .  A
C330        H335   1.083       .  S
C331        C332   1.427       .  A
C332        N333   1.431       .  S
N333        O337   1.262       .  A
N333        O338   1.262       .  A
N336        O340   1.262       .  A
N336        O339   1.260   1_565  A
C341        C342   1.399       .  A
C341        C346   1.395       .  A
C341        H348   1.092       .  S
C342        C343   1.413       .  A
C343        C344   1.415       .  A
C343        N350   1.425       .  S
C344        C345   1.405       .  A
C344        H349   1.085       .  S
C345        C346   1.411       .  A
C346        N347   1.430       .  S
N347        O351   1.262       .  A
N347        O352   1.262       .  A
N350        O354   1.262       .  A
N350        O353   1.260       .  A
C355        C356   1.411       .  A
C355        C360   1.415       .  A
C355        H362   1.084       .  S
C356        C357   1.404       .  A
C357        C358   1.397       .  A
C357        N364   1.429       .  S
C358        C359   1.409       .  A
C358        H363   1.084       .  S
C359        C360   1.414       .  A
C360        N361   1.428       .  S
N361        O365   1.262       .  A
N361        O366   1.262       .  A
N364        O368   1.262       .  A
N364        O367   1.262       .  A
C369        C370   1.399       .  A
C369        C374   1.405       .  A
C369        H376   1.083       .  S
C370        C371   1.415       .  A
C371        C372   1.404       .  A
C371        N378   1.423       .  S
C372        C373   1.396       .  A
C372        H377   1.084       .  S
C373        C374   1.421       .  A
C374        N375   1.432       .  S
N375        O379   1.262       .  A
N375        O380   1.263       .  A
N378        O382   1.259       .  A
N378        O381   1.262       .  A
C383        C384   1.396       .  A
C383        C388   1.398       .  A
C383        H390   1.084       .  S
C384        C385   1.423       .  A
C385        C386   1.425       .  A
C385        N392   1.438       .  S
C386        C387   1.401       .  A
C386        H391   1.083       .  S
C387        C388   1.418       .  A
C388        N389   1.431       .  S
N389        O393   1.262       .  A
N389        O394   1.263       .  A
N392        O396   1.260       .  A
N392        O395   1.263       .  A
C397        C398   1.408       .  A
C397        C402   1.402       .  A
C397        H404   1.084       .  S
C398        C399   1.417       .  A
C399        C400   1.411       .  A
C399        N406   1.425       .  S
C400        C401   1.404       .  A
C400        H405   1.082       .  S
C401        C402   1.409       .  A
C402        N403   1.428       .  S
N403        O407   1.262       .  A
N403        O408   1.262       .  A
N406        O410   1.260   1_554  A
N406        O409   1.261       .  A
C411        C412   1.409       .  A
C411        C416   1.413       .  A
C411        H418   1.085       .  S
C412        C413   1.408       .  A
C413        C414   1.400       .  A
C413        N420   1.428       .  S
C414        C415   1.408       .  A
C414        H419   1.084       .  S
C415        C416   1.412       .  A
C416        N417   1.426       .  S
N417        O421   1.260   1_556  A
N417        O422   1.261   1_556  A
N420        O424   1.262       .  A
N420        O423   1.262       .  A
C425        C426   1.410       .  A
C425        C430   1.400       .  A
C425        H432   1.074       .  S
C426        C427   1.402       .  A
C427        C428   1.405       .  A
C427        N434   1.411       .  S
C428        C429   1.401       .  A
C428        H433   1.082       .  S
C429        C430   1.410       .  A
C430        N431   1.431       .  S
N431        O435   1.262       .  A
N431        O436   1.262       .  A
N434        O438   1.260       .  A
N434        O437   1.261       .  A
C439        C440   1.406       .  A
C439        C444   1.406       .  A
C439        H446   1.084       .  S
C440        C441   1.406       .  A
C441        C442   1.408       .  A
C441        N448   1.429       .  S
C442        C443   1.408       .  A
C442        H447   1.083       .  S
C443        C444   1.407       .  A
C444        N445   1.428       .  S
N445        O449   1.261       .  A
N445        O450   1.262       .  A
N448       O1058   1.262       .  A
N448        O451   1.261       .  A
O452       N1054   1.262       .  A
C453        C454   1.403       .  A
C453        C458   1.406       .  A
C453        H460   1.067       .  S
C454        C455   1.425       .  A
C455        C456   1.414       .  A
C455        N462   1.444       .  S
C456        C457   1.399       .  A
C456        H461   1.080       .  S
C457        C458   1.416       .  A
C458        N459   1.429       .  S
N459        O463   1.262       .  A
N459        O464   1.262       .  A
N462        O466   1.260       .  A
N462        O465   1.258       .  A
C467        C468   1.402       .  A
C467        C472   1.399       .  A
C467        H474   1.083       .  S
C468        C469   1.410       .  A
C469        C470   1.395       .  A
C469        N476   1.423       .  S
C470        C471   1.401       .  A
C470        H475   1.084       .  S
C471        C472   1.416       .  A
C472        N473   1.426       .  S
N473        O477   1.257       .  A
N473        O478   1.254       .  A
N476        O480   1.262       .  A
N476        O479   1.262       .  A
C481        C482   1.398       .  A
C481        C486   1.411       .  A
C481        H488   1.084       .  S
C482        C483   1.412       .  A
C483        C484   1.404       .  A
C483        N490   1.429       .  S
C484        C485   1.402       .  A
C484        H489   1.084       .  S
C485        C486   1.419       .  A
C486        N487   1.439       .  S
N487        O491   1.262       .  A
N487        O492   1.261       .  A
N490        O494   1.261       .  A
N490        O493   1.262       .  A
C495        C496   1.399       .  A
C495        C500   1.410       .  A
C495        H502   1.084       .  S
C496        C497   1.429       .  A
C497        C498   1.399       .  A
C497        N504   1.432       .  S
C498        C499   1.391       .  A
C498        H503   1.085       .  S
C499        C500   1.416       .  A
C500        N501   1.425       .  S
N501        O505   1.259       .  A
N501        O506   1.262       .  A
N504        O508   1.262       .  A
N504        O507   1.261   1_556  A
C509        C510   1.413       .  A
C509        C514   1.418       .  A
C509        H516   1.081       .  S
C510        C511   1.424       .  A
C511        C512   1.403       .  A
C511        N518   1.428       .  S
C512        C513   1.396       .  A
C512        H517   1.084       .  S
C513        C514   1.408       .  A
C514        N515   1.431       .  S
N515        O519   1.252       .  A
N515        O520   1.261       .  A
N518        O522   1.262       .  A
N518        O521   1.262       .  A
C523        C524   1.408       .  A
C523        C528   1.416       .  A
C523        H530   1.078       .  S
C524        C525   1.412       .  A
C525        C526   1.394       .  A
C525        N532   1.425       .  S
C526        C527   1.395       .  A
C526        H531   1.070       .  S
C527        C528   1.416       .  A
C528        N529   1.438       .  S
N529        O533   1.261   1_554  A
N529        O534   1.262       .  A
N532        O536   1.261       .  A
N532        O535   1.262       .  A
C537        C538   1.387       .  A
C537        C542   1.391       .  A
C537        H544   1.085       .  S
C538        C539   1.418       .  A
C539        C540   1.412       .  A
C539        N546   1.427       .  S
C540        C541   1.400       .  A
C540        H545   1.084       .  S
C541        C542   1.430       .  A
C542        N543   1.432       .  S
N543        O547   1.261   1_554  A
N543        O548   1.262       .  A
N546        O550   1.262       .  A
N546        O549   1.260       .  A
C551        C552   1.397       .  A
C551        C556   1.402       .  A
C551        H558   1.083       .  S
C552        C553   1.415       .  A
C553        C554   1.403       .  A
C553        N560   1.423       .  S
C554        C555   1.398       .  A
C554        H559   1.084       .  S
C555        C556   1.405       .  A
C556        N557   1.413       .  S
N557       O1167   1.262       .  A
N557        O562   1.260       .  A
N560        O564   1.260       .  A
N560        O563   1.262       .  A
O561       N1163   1.262       .  A
C565        C566   1.397       .  A
C565        C570   1.401       .  A
C565        H572   1.083       .  S
C566        C567   1.422       .  A
C567        C568   1.411       .  A
C567        N574   1.424       .  S
C568        C569   1.399       .  A
C568        H573   1.083       .  S
C569        C570   1.406       .  A
C570        N571   1.409       .  S
N571        O575   1.261   1_455  A
N571        O576   1.260   1_455  A
N574        O578   1.262       .  A
N574        O577   1.259       .  A
C579        C580   1.405       .  A
C579        C584   1.406       .  A
C579        H586   1.084       .  S
C580        C581   1.405       .  A
C581        C582   1.414       .  A
C581        N588   1.427       .  S
C582        C583   1.414       .  A
C582        H587   1.084       .  S
C583        C584   1.412       .  A
C584        N585   1.428       .  S
N585        O589   1.262       .  A
N585        O590   1.262       .  A
N588       O1198   1.262       .  A
N588       O1197   1.259   1_455  A
O591       N1194   1.259       .  A
O592       N1194   1.262       .  A
C593        C594   1.395       .  A
C593        C598   1.395       .  A
C593        H600   1.085       .  S
C594        C595   1.420       .  A
C595        C596   1.407       .  A
C595        N602   1.426       .  S
C596        C597   1.399       .  A
C596        H601   1.083       .  S
C597        C598   1.402       .  A
C598        N599   1.406       .  S
N599        O603   1.252       .  A
N599        O604   1.261       .  A
N602        O606   1.261       .  A
N602        O605   1.261       .  A
N607        N608   1.334       .  A
N607        N613   1.316       .  A
N607       Mn636   2.280   1_554  S
N608        C615   1.369       .  A
N609        N611   1.318       .  A
N609        N610   1.313       .  A
N609       Mn625   2.195   1_556  S
N610        C616   1.343       .  A
N611        N612   1.326       .  A
N611       Mn636   2.223       .  S
N612        C616   1.362       .  A
N613        N614   1.308       .  A
N613       Mn625   2.149       .  S
N614        C615   1.331       .  A
C615       C1147   1.489       .  S
C616       C1119   1.480       .  S
N617        N623   1.312       .  A
N617        N618   1.329       .  A
N617       Mn647   2.270       .  S
N618        C626   1.368       .  A
N619        N620   1.319       .  A
N619        N621   1.311       .  A
N619       Mn625   2.164       .  S
N620        C627   1.345       .  A
N621        N622   1.326       .  A
N621       Mn647   2.234   1_554  S
N622        C627   1.362       .  A
N623        N624   1.318       .  A
N623       Mn625   2.141   1_556  S
N624        C626   1.341       .  A
Mn625      Cl649   2.460   1_554  S
C626       C1186   1.492       .  S
C627       C1203   1.489       .  S
N628        N629   1.335       .  A
N628        N634   1.320       .  A
N628       Mn636   2.267       .  S
N629        C637   1.365       .  A
N630        N632   1.320       .  A
N630        N631   1.309       .  A
N630       Mn648   2.189   1_554  S
N631        C638   1.339       .  A
N632        N633   1.329       .  A
N632       Mn636   2.212   1_554  S
N633        C638   1.358       .  A
N634        N635   1.310       .  A
N634       Mn648   2.163       .  S
N635        C637   1.332       .  A
Mn636      Cl649   2.614       .  S
C637       C1102   1.491       .  S
C638       C1133   1.472       .  S
N639        N640   1.327       .  A
N639        N645   1.312       .  A
N639       Mn647   2.263   1_554  S
N640        C650   1.366       .  A
N641        N642   1.319       .  A
N641        N643   1.313       .  A
N641       Mn648   2.179       .  S
N642        C651   1.346       .  A
N643        N644   1.326       .  A
N643       Mn647   2.228       .  S
N644        C651   1.361       .  A
N645        N646   1.322       .  A
N645       Mn648   2.160   1_554  S
N646        C650   1.346       .  A
Mn647      Cl649   2.583       .  S
Mn648      Cl649   2.450       .  S
C650       C1172   1.499       .  S
C651       C1161   1.489       .  S
N652        N653   1.326       .  A
N652        N658   1.311       .  A
N652       Mn681   2.228   1_554  S
N653        C660   1.357       .  A
N654        N656   1.311       .  A
N654        N655   1.322       .  A
N654       Mn670   2.185       .  S
N655        C661   1.349       .  A
N656        N657   1.319       .  A
N656       Mn681   2.179       .  S
N657        C661   1.350       .  A
N658        N659   1.320       .  A
N658       Mn670   2.167   1_554  S
N659        C660   1.345       .  A
C660       C1088   1.479       .  S
C661       C1074   1.485       .  S
N662        N668   1.319       .  A
N662        N663   1.338       .  A
N662       Mn692   2.299       .  S
N663        C671   1.375       .  A
N664        N665   1.313       .  A
N664        N666   1.321       .  A
N664       Mn670   2.176   1_554  S
N665        C672   1.340       .  A
N666        N667   1.332       .  A
N666       Mn692   2.265   1_554  S
N667        C672   1.365       .  A
N668        N669   1.306       .  A
N668       Mn670   2.144       .  S
N669        C671   1.333       .  A
Mn670      Cl694   2.460       .  S
C671       C1032   1.497       .  S
C672       C1007   1.483       .  S
N673        N674   1.325       .  A
N673        N679   1.312       .  A
N673       Mn681   2.223       .  S
N674        C682   1.354       .  A
N675        N677   1.309       .  A
N675        N676   1.327       .  A
N675       Mn693   2.204   1_554  S
N676        C683   1.356       .  A
N677        N678   1.314       .  A
N677       Mn681   2.175   1_554  S
N678        C683   1.347       .  A
N679        N680   1.321       .  A
N679       Mn693   2.179       .  S
N680        C682   1.348       .  A
Mn681      Cl694   2.601       .  S
C682       C1046   1.479       .  S
C683       C1060   1.502       .  S
N684        N685   1.341       .  A
N684        N690   1.320       .  A
N684       Mn692   2.290   1_554  S
N685        C695   1.374       .  A
N686        N687   1.314       .  A
N686        N688   1.323       .  A
N686       Mn693   2.181       .  S
N687        C696   1.339       .  A
N688        N689   1.333       .  A
N688       Mn692   2.267       .  S
N689        C696   1.363       .  A
N690        N691   1.301       .  A
N690       Mn693   2.145   1_554  S
N691        C695   1.333       .  A
Mn692      Cl694   2.615       .  S
Mn693      Cl694   2.461       .  S
C695        C993   1.495       .  S
C696       C1018   1.483       .  S
N697        N698   1.332       .  A
N697        N703   1.320       .  A
N697       Mn726   2.256       .  S
N698        C705   1.366       .  A
N699        N701   1.324       .  A
N699        N700   1.311       .  A
N699       Mn715   2.171       .  S
N700        C706   1.339       .  A
N701        N702   1.335       .  A
N701       Mn726   2.278   1_565  S
N702        C706   1.366       .  A
N703        N704   1.310       .  A
N703       Mn715   2.161   1_545  S
N704        C705   1.337       .  A
C705        C979   1.488       .  S
C706        C948   1.488       .  S
N707        N713   1.309       .  A
N707        N708   1.325       .  A
N707       Mn737   2.206       .  S
N708        C716   1.357       .  A
N709        N710   1.318       .  A
N709        N711   1.314       .  A
N709       Mn715   2.174   1_545  S
N710        C717   1.343       .  A
N711        N712   1.327       .  A
N711       Mn737   2.216   1_545  S
N712        C717   1.355       .  A
N713        N714   1.319       .  A
N713       Mn715   2.188       .  S
N714        C716   1.352       .  A
Mn715      Cl739   2.464       .  S
C716       C1130   1.493       .  S
C717       C1144   1.472       .  S
N718        N719   1.333       .  A
N718        N724   1.322       .  A
N718       Mn726   2.256   1_565  S
N719        C727   1.363       .  A
N720        N722   1.321       .  A
N720        N721   1.308       .  A
N720       Mn738   2.169   1_545  S
N721        C728   1.338       .  A
N722        N723   1.338       .  A
N722       Mn726   2.280       .  S
N723        C728   1.369       .  A
N724        N725   1.310       .  A
N724       Mn738   2.164       .  S
N725        C727   1.336       .  A
Mn726      Cl739   2.611   1_545  S
C727        C934   1.482       .  S
C728        C965   1.495       .  S
N729        N730   1.331       .  A
N729        N735   1.309       .  A
N729       Mn737   2.223   1_545  S
N730        C740   1.359       .  A
N731        N732   1.320       .  A
N731        N733   1.313       .  A
N731       Mn738   2.180       .  S
N732        C741   1.347       .  A
N733        N734   1.331       .  A
N733       Mn737   2.236       .  S
N734        C741   1.360       .  A
N735        N736   1.318       .  A
N735       Mn738   2.179   1_545  S
N736        C740   1.349       .  A
Mn737      Cl739   2.600       .  S
Mn738      Cl739   2.466       .  S
C740       C1004   1.500       .  S
C741        C990   1.497       .  S
N742        N743   1.333       .  A
N742        N748   1.312       .  A
N742       Mn771   2.249   1_545  S
N743        C750   1.364       .  A
N744        N746   1.312       .  A
N744        N745   1.319       .  A
N744       Mn760   2.172       .  S
N745        C751   1.343       .  A
N746        N747   1.328       .  A
N746       Mn771   2.217       .  S
N747        C751   1.356       .  A
N748        N749   1.320       .  A
N748       Mn760   2.189   1_545  S
N749        C750   1.350       .  A
C750       C1116   1.511       .  S
C751       C1105   1.479       .  S
N752        N758   1.321       .  A
N752        N753   1.331       .  A
N752       Mn782   2.265       .  S
N753        C761   1.367       .  A
N754        N755   1.312       .  A
N754        N756   1.322       .  A
N754       Mn760   2.165   1_545  S
N755        C762   1.337       .  A
N756        N757   1.331       .  A
N756       Mn782   2.250   1_545  S
N757        C762   1.360       .  A
N758        N759   1.309       .  A
N758       Mn760   2.161       .  S
N759        C761   1.336       .  A
Mn760      Cl784   2.468       .  S
C761        C895   1.480       .  S
C762        C923   1.474       .  S
N763        N764   1.333       .  A
N763        N769   1.312       .  A
N763       Mn771   2.242       .  S
N764        C772   1.362       .  A
N765        N767   1.311       .  A
N765        N766   1.316       .  A
N765       Mn783   2.158   1_545  S
N766        C773   1.345       .  A
N767        N768   1.325       .  A
N767       Mn771   2.212   1_545  S
N768        C773   1.357       .  A
N769        N770   1.316       .  A
N769       Mn783   2.177       .  S
N770        C772   1.347       .  A
Mn771      Cl784   2.592       .  S
C772       C1021   1.498       .  S
C773       C1035   1.481       .  S
N774        N775   1.332       .  A
N774        N780   1.321       .  A
N774       Mn782   2.255   1_545  S
N775        C785   1.364       .  A
N776        N777   1.307       .  A
N776        N778   1.320       .  A
N776       Mn783   2.154       .  S
N777        C786   1.336       .  A
N778        N779   1.335       .  A
N778       Mn782   2.263       .  S
N779        C786   1.366       .  A
N780        N781   1.311       .  A
N780       Mn783   2.176   1_545  S
N781        C785   1.339       .  A
Mn782      Cl784   2.604       .  S
Mn783      Cl784   2.468       .  S
C785        C906   1.478       .  S
C786        C878   1.483       .  S
N787        N788   1.334       .  A
N787        N793   1.320       .  A
N788        C795   1.367       .  A
N789        N791   1.318       .  A
N789        N790   1.304       .  A
N789       Mn805   2.157       .  S
N790        C796   1.335       .  A
N791        N792   1.338       .  A
N792        C796   1.369       .  A
N793        N794   1.311       .  A
N793       Mn805   2.162       .  S
N794        C795   1.336       .  A
C795        C976   1.481       .  S
C796        C920   1.495       .  S
N797        N803   1.312       .  A
N797        N798   1.326       .  A
N798        C806   1.360       .  A
N799        N800   1.320       .  A
N799        N801   1.310       .  A
N799       Mn805   2.174       .  S
N800        C807   1.347       .  A
N801        N802   1.324       .  A
N802        C807   1.357       .  A
N803        N804   1.323       .  A
N803       Mn805   2.174       .  S
N804        C806   1.346       .  A
C806       C1189   1.498       .  S
C807       C1200   1.484       .  S
N808        N809   1.332       .  A
N808        N814   1.325       .  A
N808       Mn816   2.262       .  S
N809        C817   1.362       .  A
N810        N812   1.321       .  A
N810        N811   1.314       .  A
N810       Mn828   2.171       .  S
N811        C818   1.338       .  A
N812        N813   1.333       .  A
N812       Mn816   2.270       .  S
N813        C818   1.365       .  A
N814        N815   1.313       .  A
N814       Mn828   2.186       .  S
N815        C817   1.342       .  A
Mn816      Cl829   2.618   1_655  S
C817        C909   1.494       .  S
C818        C962   1.482       .  S
N819        N820   1.328       .  A
N819        N825   1.316       .  A
N819       Mn827   2.239   1_655  S
N820        C830   1.360       .  A
N821        N822   1.318       .  A
N821        N823   1.311       .  A
N821       Mn828   2.193       .  S
N822        C831   1.354       .  A
N823        N824   1.322       .  A
N823       Mn827   2.188   1_655  S
N824        C831   1.352       .  A
N825        N826   1.319       .  A
N825       Mn828   2.181       .  S
N826        C830   1.344       .  A
Mn827      Cl829   2.575       .  S
Mn828      Cl829   2.482   1_655  S
C830       C1091   1.483       .  S
C831       C1077   1.485       .  S
N832        N833   1.324       .  A
N832        N838   1.313       .  A
N833        C840   1.362       .  A
N834        N836   1.314       .  A
N834        N835   1.322       .  A
N834       Mn850   2.190       .  S
N835        C841   1.350       .  A
N836        N837   1.325       .  A
N837        C841   1.354       .  A
N838        N839   1.323       .  A
N838       Mn850   2.180       .  S
N839        C840   1.347       .  A
C840       C1175   1.500       .  S
C841       C1158   1.487       .  S
N842        N848   1.320       .  A
N842        N843   1.332       .  A
N843        C851   1.362       .  A
N844        N845   1.311       .  A
N844        N846   1.321       .  A
N844       Mn850   2.172       .  S
N845        C852   1.339       .  A
N846        N847   1.332       .  A
N847        C852   1.365       .  A
N848        N849   1.311       .  A
N848       Mn850   2.161       .  S
N849        C851   1.337       .  A
C851        C892   1.473       .  S
C852        C951   1.479       .  S
N853        N854   1.327       .  A
N853        N859   1.312       .  A
N853       Mn861   2.231       .  S
N854        C862   1.359       .  A
N855        N857   1.311       .  A
N855        N856   1.321       .  A
N855       Mn873   2.172       .  S
N856        C863   1.349       .  A
N857        N858   1.325       .  A
N857       Mn861   2.245       .  S
N858        C863   1.364       .  A
N859        N860   1.319       .  A
N859       Mn873   2.164       .  S
N860        C862   1.342       .  A
Mn861      Cl874   2.592       .  S
C862       C1049   1.479       .  S
C863       C1063   1.500       .  S
N864        N865   1.333       .  A
N864        N870   1.323       .  A
N864       Mn872   2.262       .  S
N865        C875   1.364       .  A
N866        N867   1.310       .  A
N866        N868   1.319       .  A
N866       Mn873   2.162       .  S
N867        C876   1.336       .  A
N868        N869   1.332       .  A
N868       Mn872   2.258       .  S
N869        C876   1.365       .  A
N870        N871   1.310       .  A
N870       Mn873   2.162       .  S
N871        C875   1.335       .  A
Mn872      Cl874   2.608       .  S
Mn873      Cl874   2.478       .  S
C875        C937   1.489       .  S
C876        C881   1.473       .  S
C877        C878   1.406       .  A
C877        C882   1.395       .  A
C877        H884   1.085       .  S
C878        C879   1.413       .  A
C879        C880   1.411       .  A
C879        N886   1.428       .  S
C880        C881   1.408       .  A
C880        H885   1.084       .  S
C881        C882   1.407       .  A
C882        N883   1.430       .  S
N883        O887   1.262       .  A
N883        O888   1.262       .  A
N886        O890   1.262       .  A
N886        O889   1.262       .  A
C891        C892   1.396       .  A
C891        C896   1.398       .  A
C891        H898   1.082       .  S
C892        C893   1.412       .  A
C893        C894   1.405       .  A
C893        N900   1.424       .  S
C894        C895   1.401       .  A
C894        H899   1.084       .  S
C895        C896   1.417       .  A
C896        N897   1.431       .  S
N897        O901   1.262       .  A
N897        O902   1.262       .  A
N900        O904   1.261       .  A
N900        O903   1.262       .  A
C905        C906   1.409       .  A
C905        C910   1.405       .  A
C905        H912   1.085       .  S
C906        C907   1.402       .  A
C907        C908   1.401       .  A
C907        N914   1.428       .  S
C908        C909   1.414       .  A
C908        H913   1.083       .  S
C909        C910   1.409       .  A
C910        N911   1.428       .  S
N911        O915   1.262       .  A
N911        O916   1.262       .  A
N914        O918   1.262       .  A
N914        O917   1.262       .  A
C919        C920   1.417       .  A
C919        C924   1.392       .  A
C919        H926   1.083       .  S
C920        C921   1.407       .  A
C921        C922   1.411       .  A
C921        N928   1.427       .  S
C922        C923   1.414       .  A
C922        H927   1.084       .  S
C923        C924   1.395       .  A
C924        N925   1.429       .  S
N925        O929   1.262       .  A
N925        O930   1.262       .  A
N928        O932   1.262       .  A
N928        O931   1.262       .  A
C933        C934   1.393       .  A
C933        C938   1.403       .  A
C933        H940   1.084       .  S
C934        C935   1.421       .  A
C935        C936   1.403       .  A
C935        N942   1.430       .  S
C936        C937   1.395       .  A
C936        H941   1.084       .  S
C937        C938   1.426       .  A
C938        N939   1.431       .  S
N939        O943   1.262       .  A
N939        O944   1.262       .  A
N942        O946   1.262       .  A
N942        O945   1.260   1_565  A
C947        C948   1.400       .  A
C947        C952   1.393       .  A
C947        H954   1.095       .  S
C948        C949   1.412       .  A
C949        C950   1.414       .  A
C949        N956   1.426       .  S
C950        C951   1.406       .  A
C950        H955   1.084       .  S
C951        C952   1.407       .  A
C952        N953   1.429       .  S
N953        O957   1.262       .  A
N953        O958   1.262       .  A
N956        O960   1.262       .  A
N956        O959   1.260       .  A
C961        C962   1.410       .  A
C961        C966   1.415       .  A
C961        H968   1.084       .  S
C962        C963   1.405       .  A
C963        C964   1.399       .  A
C963        N970   1.429       .  S
C964        C965   1.409       .  A
C964        H969   1.085       .  S
C965        C966   1.414       .  A
C966        N967   1.428       .  S
N967        O971   1.262       .  A
N967        O972   1.262       .  A
N970        O974   1.262       .  A
N970        O973   1.262       .  A
C975        C976   1.401       .  A
C975        C980   1.406       .  A
C975        H982   1.082       .  S
C976        C977   1.415       .  A
C977        C978   1.404       .  A
C977        N984   1.423       .  S
C978        C979   1.396       .  A
C978        H983   1.083       .  S
C979        C980   1.419       .  A
C980        N981   1.432       .  S
N981        O985   1.262       .  A
N981        O986   1.263       .  A
N984        O988   1.260       .  A
N984        O987   1.262       .  A
C989        C990   1.396       .  A
C989        C994   1.397       .  A
C989        H996   1.084       .  S
C990        C991   1.423       .  A
C991        C992   1.424       .  A
C991        N998   1.438       .  S
C992        C993   1.400       .  A
C992        H997   1.083       .  S
C993        C994   1.418       .  A
C994        N995   1.431       .  S
N995        O999   1.262       .  A
N995       O1000   1.263       .  A
N998       O1002   1.261       .  A
N998       O1001   1.262       .  A
C1003      C1004   1.409       .  A
C1003      C1008   1.402       .  A
C1003      H1010   1.084       .  S
C1004      C1005   1.414       .  A
C1005      C1006   1.411       .  A
C1005      N1012   1.424       .  S
C1006      C1007   1.405       .  A
C1006      H1011   1.082       .  S
C1007      C1008   1.409       .  A
C1008      N1009   1.428       .  S
N1009      O1013   1.262       .  A
N1009      O1014   1.262       .  A
N1012      O1016   1.260   1_554  A
N1012      O1015   1.261       .  A
C1017      C1018   1.410       .  A
C1017      C1022   1.413       .  A
C1017      H1024   1.085       .  S
C1018      C1019   1.407       .  A
C1019      C1020   1.400       .  A
C1019      N1026   1.428       .  S
C1020      C1021   1.408       .  A
C1020      H1025   1.084       .  S
C1021      C1022   1.411       .  A
C1022      N1023   1.425       .  S
N1023      O1027   1.259   1_556  A
N1023      O1028   1.261   1_556  A
N1026      O1030   1.262       .  A
N1026      O1029   1.262       .  A
C1031      C1032   1.412       .  A
C1031      C1036   1.399       .  A
C1031      H1038   1.076       .  S
C1032      C1033   1.402       .  A
C1033      C1034   1.405       .  A
C1033      N1040   1.412       .  S
C1034      C1035   1.402       .  A
C1034      H1039   1.082       .  S
C1035      C1036   1.408       .  A
C1036      N1037   1.431       .  S
N1037      O1041   1.262       .  A
N1037      O1042   1.262       .  A
N1040      O1044   1.260       .  A
N1040      O1043   1.261       .  A
C1045      C1046   1.406       .  A
C1045      C1050   1.405       .  A
C1045      H1052   1.084       .  S
C1046      C1047   1.406       .  A
C1047      C1048   1.407       .  A
C1047      N1054   1.429       .  S
C1048      C1049   1.408       .  A
C1048      H1053   1.084       .  S
C1049      C1050   1.406       .  A
C1050      N1051   1.429       .  S
N1051      O1055   1.261       .  A
N1051      O1056   1.262       .  A
N1054      O1057   1.260       .  A
C1059      C1060   1.402       .  A
C1059      C1064   1.406       .  A
C1059      H1066   1.073       .  S
C1060      C1061   1.424       .  A
C1061      C1062   1.413       .  A
C1061      N1068   1.443       .  S
C1062      C1063   1.398       .  A
C1062      H1067   1.081       .  S
C1063      C1064   1.416       .  A
C1064      N1065   1.429       .  S
N1065      O1069   1.262       .  A
N1065      O1070   1.262       .  A
N1068      O1072   1.260       .  A
N1068      O1071   1.258       .  A
C1073      C1074   1.401       .  A
C1073      C1078   1.398       .  A
C1073      H1080   1.083       .  S
C1074      C1075   1.410       .  A
C1075      C1076   1.396       .  A
C1075      N1082   1.423       .  S
C1076      C1077   1.401       .  A
C1076      H1081   1.084       .  S
C1077      C1078   1.416       .  A
C1078      N1079   1.425       .  S
N1079      O1083   1.257       .  A
N1079      O1084   1.253   1_655  A
N1082      O1086   1.262       .  A
N1082      O1085   1.262       .  A
C1087      C1088   1.398       .  A
C1087      C1092   1.413       .  A
C1087      H1094   1.084       .  S
C1088      C1089   1.411       .  A
C1089      C1090   1.404       .  A
C1089      N1096   1.429       .  S
C1090      C1091   1.402       .  A
C1090      H1095   1.084       .  S
C1091      C1092   1.421       .  A
C1092      N1093   1.440       .  S
N1093      O1097   1.262       .  A
N1093      O1098   1.261   1_655  A
N1096      O1100   1.261       .  A
N1096      O1099   1.262       .  A
C1101      C1102   1.400       .  A
C1101      C1106   1.410       .  A
C1101      H1108   1.084       .  S
C1102      C1103   1.430       .  A
C1103      C1104   1.400       .  A
C1103      N1110   1.433       .  S
C1104      C1105   1.390       .  A
C1104      H1109   1.085       .  S
C1105      C1106   1.415       .  A
C1106      N1107   1.426       .  S
N1107      O1111   1.259       .  A
N1107      O1112   1.262       .  A
N1110      O1114   1.262       .  A
N1110      O1113   1.261   1_556  A
C1115      C1116   1.412       .  A
C1115      C1120   1.417       .  A
C1115      H1122   1.081       .  S
C1116      C1117   1.423       .  A
C1117      C1118   1.403       .  A
C1117      N1124   1.428       .  S
C1118      C1119   1.396       .  A
C1118      H1123   1.084       .  S
C1119      C1120   1.409       .  A
C1120      N1121   1.432       .  S
N1121      O1125   1.254       .  A
N1121      O1126   1.262       .  A
N1124      O1128   1.262       .  A
N1124      O1127   1.262       .  A
C1129      C1130   1.406       .  A
C1129      C1134   1.416       .  A
C1129      H1136   1.086       .  S
C1130      C1131   1.414       .  A
C1131      C1132   1.390       .  A
C1131      N1138   1.423       .  S
C1132      C1133   1.391       .  A
C1132      H1137   1.109       .  S
C1133      C1134   1.418       .  A
C1134      N1135   1.439       .  S
N1135      O1139   1.262   1_554  A
N1135      O1140   1.262       .  A
N1138      O1142   1.262       .  A
N1138      O1141   1.262       .  A
C1143      C1144   1.387       .  A
C1143      C1148   1.392       .  A
C1143      H1150   1.085       .  S
C1144      C1145   1.417       .  A
C1145      C1146   1.411       .  A
C1145      N1152   1.427       .  S
C1146      C1147   1.399       .  A
C1146      H1151   1.084       .  S
C1147      C1148   1.429       .  A
C1148      N1149   1.431       .  S
N1149      O1153   1.261   1_554  A
N1149      O1154   1.262       .  A
N1152      O1156   1.262       .  A
N1152      O1155   1.260       .  A
C1157      C1158   1.397       .  A
C1157      C1162   1.402       .  A
C1157      H1164   1.083       .  S
C1158      C1159   1.415       .  A
C1159      C1160   1.404       .  A
C1159      N1166   1.423       .  S
C1160      C1161   1.398       .  A
C1160      H1165   1.084       .  S
C1161      C1162   1.405       .  A
C1162      N1163   1.413       .  S
N1163      O1168   1.260       .  A
N1166      O1170   1.260       .  A
N1166      O1169   1.262       .  A
C1171      C1172   1.397       .  A
C1171      C1176   1.401       .  A
C1171      H1178   1.083       .  S
C1172      C1173   1.421       .  A
C1173      C1174   1.412       .  A
C1173      N1180   1.424       .  S
C1174      C1175   1.400       .  A
C1174      H1179   1.084       .  S
C1175      C1176   1.406       .  A
C1176      N1177   1.408       .  S
N1177      O1181   1.261       .  A
N1177      O1182   1.260       .  A
N1180      O1184   1.262       .  A
N1180      O1183   1.260       .  A
C1185      C1186   1.406       .  A
C1185      C1190   1.406       .  A
C1185      H1192   1.084       .  S
C1186      C1187   1.404       .  A
C1187      C1188   1.413       .  A
C1187      N1194   1.427       .  S
C1188      C1189   1.413       .  A
C1188      H1193   1.084       .  S
C1189      C1190   1.411       .  A
C1190      N1191   1.428       .  S
N1191      O1195   1.262       .  A
N1191      O1196   1.262       .  A
C1199      C1200   1.395       .  A
C1199      C1204   1.395       .  A
C1199      H1206   1.085       .  S
C1200      C1201   1.419       .  A
C1201      C1202   1.407       .  A
C1201      N1208   1.425       .  S
C1202      C1203   1.399       .  A
C1202      H1207   1.084       .  S
C1203      C1204   1.402       .  A
C1204      N1205   1.407       .  S
N1205      O1209   1.252       .  A
N1205      O1210   1.262       .  A
N1208      O1212   1.261       .  A
N1208      O1211   1.261       .  A
