geometry optimzed in LAMMPS
_audit_creation_date              2020-11-30 
_audit_creation_method            'lammps2cif' 
_symmetry_space_group_name_H-M    'P1' 
_symmetry_Int_Tables_number       1 
_symmetry_cell_setting            triclinic 
loop_ 
_symmetry_equiv_pos_as_xyz 
  x,y,z 
_cell_length_a                    48.2905963 
_cell_length_b                    25.2470171024586 
_cell_length_c                    49.77896937999219 
_cell_angle_alpha                 89.95270070404726 
_cell_angle_beta                  90.02669863748496 
_cell_angle_gamma                 89.60388708601106 
loop_ 
_atom_site_label 
_atom_site_type_symbol 
_atom_site_fract_x 
_atom_site_fract_y 
_atom_site_fract_z 
_atom_site_charge 
C1          C  0.19254627  0.36252679  0.05706007     0.42500
N2          N  0.19079323  0.43769080  0.03612497     0.01400
C3          C  0.07305853  0.59901253  0.04634607    -0.06500
H4          H  0.04574690  0.42312995  0.04132245     0.06800
C5          C  0.10601191  0.40687582  0.43828328    -0.06900
Co6        Co  0.14140056  0.50037755  0.05330606     0.74200
N7          N  0.08804648  0.44966566  0.03712867    -0.26100
Co8        Co  0.08879421  0.50434864  0.00428797     0.74100
C9          C  0.07662550  0.39659754  0.43916492     0.42600
N10         N  0.17131300  0.43355493  0.45916494     0.01000
N11         N  0.08851438  0.44462556  0.47358939     0.01100
N12         N  0.10971627  0.59099588  0.07352508    -0.46900
H13         H  0.15590891  0.38555966  0.08387489     0.06800
N14         N  0.10932306  0.44631237  0.05386295     0.01400
N15         N  0.09035162  0.55706200  0.47098612     0.01100
C16         C  0.07999145  0.59855053  0.43390076     0.42700
N17         N  0.19163945  0.43450622  0.47672200    -0.25500
C18         C  0.17238466  0.60316432  0.06493770    -0.06400
N19         N  0.20384086  0.39120828  0.03688499    -0.46600
N20         N  0.06971067  0.58253740  0.45821418    -0.46800
C21         C  0.19301960  0.63466551  0.05148774     0.42500
N22         N  0.11219049  0.55990416  0.05254384     0.01300
N23         N  0.19247012  0.55344605  0.47459050    -0.25500
N24         N  0.17076891  0.44026567  0.05400382    -0.26000
N25         N  0.17265182  0.55267370  0.45645516     0.01000
H26         H  0.22278458  0.61313879  0.48472018     0.06900
H27         H  0.12113019  0.57500079  0.41497176     0.06900
N28         N  0.09112583  0.56311372  0.03559409    -0.26100
N29         N  0.11101438  0.43907363  0.45876252    -0.25700
N30         N  0.19179370  0.55692345  0.03363782     0.01400
C31         C  0.07775395  0.40104232  0.07408230     0.42700
C32         C  0.20547886  0.38807218  0.47522560    -0.06900
N33         N  0.11226928  0.55262999  0.45522589    -0.25700
H34         H  0.11943313  0.40299770  0.42098239     0.06900
N35         N  0.10385011  0.41859707  0.07567353    -0.46900
H36         H  0.22210941  0.37539579  0.48831791     0.06900
C37         C  0.19244932  0.62824336  0.44999398     0.42600
C38         C  0.17100115  0.39585960  0.06875778    -0.06400
Co39       Co  0.19284987  0.49560798  0.50509168     0.73800
N40         N  0.16943330  0.38754476  0.44647868    -0.46600
C41         C  0.08619856  0.61856195  0.07164068     0.42800
N42         N  0.20433454  0.60361403  0.03219517    -0.46600
Co43       Co  0.14214740  0.49435292  0.45744737     0.73900
C44         C  0.10803231  0.57868526  0.43251680    -0.06900
C45         C  0.06688087  0.42285926  0.04851858    -0.06500
N46         N  0.17232263  0.55668841  0.05207385    -0.26000
N47         N  0.06689839  0.42219844  0.46148575    -0.46800
H48         H  0.05236776  0.60682707  0.03896095     0.06900
C49         C  0.20643048  0.59925689  0.47174426    -0.06900
Cl50       Cl  0.14121160  0.49857163  0.00519844    -0.49900
C51         C  0.19045244  0.35678613  0.45528630     0.42600
H52         H  0.15829495  0.61532304  0.07939591     0.06800
N53         N  0.17148023  0.59686764  0.44199106    -0.46600
C54         C  0.41390710  0.40212406  0.07898358     0.42500
N55         N  0.40726494  0.44181577  0.04051485     0.01400
C56         C  0.29774811  0.61121950  0.02244279    -0.06500
H57         H  0.27106900  0.39447637  0.01696956     0.06800
C58         C  0.33621374  0.38222360  0.44356722    -0.06900
Co59       Co  0.35364908  0.49898558  0.04945211     0.74200
N60         N  0.30417307  0.44412058  0.02913018    -0.26100
Co61       Co  0.30713614  0.49511829  0.49787727     0.74100
C62         C  0.31531485  0.34936009  0.45594849     0.42600
N63         N  0.39341544  0.43478994  0.45929768     0.01000
N64         N  0.31234714  0.42917589  0.47182433     0.01100
N65         N  0.32808546  0.60701473  0.05654552    -0.46900
H66         H  0.36856131  0.40823145  0.08944314     0.06800
N67         N  0.32281825  0.44171875  0.04809825     0.01400
N68         N  0.30909369  0.54655543  0.46593156     0.01100
C69         C  0.30273647  0.61576214  0.44131820     0.42700
N70         N  0.41371923  0.43718200  0.47697845    -0.25500
C71         C  0.38782449  0.58938993  0.07188390    -0.06400
N72         N  0.42680525  0.42114633  0.05645549    -0.46600
N73         N  0.29182286  0.58624862  0.46121231    -0.46800
C74         C  0.41650639  0.60516163  0.07148831     0.42500
N75         N  0.32524531  0.56028624  0.04482198     0.01300
N76         N  0.41267845  0.54901981  0.47336565    -0.25500
N77         N  0.38296980  0.43967737  0.05259090    -0.26000
N78         N  0.39103149  0.55131375  0.45706950     0.01000
H79         H  0.45513250  0.57293054  0.46642093     0.06900
H80         H  0.34472014  0.60223163  0.42019973     0.06900
N81         N  0.30784236  0.56129009  0.02441119    -0.26100
N82         N  0.33342764  0.43001090  0.45502555    -0.25700
N83         N  0.40791787  0.55458784  0.03720265     0.01400
C84         C  0.29884593  0.37019422  0.05289767     0.42700
C85         C  0.43506441  0.40774836  0.46709468    -0.06900
N86         N  0.33098515  0.54745567  0.45048062    -0.25700
H87         H  0.35284947  0.36994259  0.43056537     0.06900
N88         N  0.32084882  0.39753705  0.06242909    -0.46900
H89         H  0.45563310  0.40668447  0.47560873     0.06900
C90         C  0.42193012  0.59355720  0.43431999     0.42600
C91         C  0.38471194  0.41022316  0.07462364    -0.06400
Co92       Co  0.41157544  0.49553580  0.00715669     0.73800
N93         N  0.39930226  0.40419543  0.43876119    -0.46600
C94         C  0.31148859  0.64166719  0.04376162     0.42800
N95         N  0.42801483  0.58150148  0.04946705    -0.46600
Co96       Co  0.36210047  0.49119856  0.45527930     0.73900
C97         C  0.32903904  0.58982314  0.43425173    -0.06900
C98         C  0.28731415  0.40284162  0.03121770    -0.06500
N99         N  0.38483185  0.55588663  0.05140997    -0.26000
N100        N  0.30147475  0.38086764  0.47363719    -0.46800
H101        H  0.28426827  0.62579619  0.00702479     0.06900
C102        C  0.43365022  0.57394627  0.46028192    -0.06900
Cl103      Cl  0.35923166  0.49560075  0.00236613    -0.49900
C104        C  0.42531037  0.38597294  0.44095694     0.42600
H105        H  0.37345168  0.59302110  0.08844378     0.06800
N106        N  0.39542604  0.57909852  0.43515491    -0.46600
C107        C  0.19092974  0.13276896  0.05655034     0.42500
N108        N  0.21197290  0.05665220  0.05726850     0.01400
C109        C  0.20646351  0.92581060  0.17953807    -0.06500
H110        H  0.21397215  0.10486635  0.19334854     0.06800
C111        C  0.32100576  0.09419936  0.13247865    -0.06900
Co112      Co  0.19787047  0.00002147  0.10742397     0.74200
N113        N  0.21683317  0.06403120  0.15508849    -0.26100
Co114      Co  0.25089507  0.00942568  0.15593829     0.74100
C115        C  0.32195591  0.10874538  0.16064034     0.42600
N116        N  0.29198906  0.06271905  0.07074709     0.01000
N117        N  0.28347671  0.06659994  0.15195123     0.01100
N118        N  0.17911267  0.91893345  0.14347758    -0.46900
H119        H  0.16481599  0.11220821  0.09283827     0.06800
N120        N  0.19846726  0.05986514  0.13545729     0.01400
N121        N  0.28485703  0.95495015  0.15461251     0.01100
C122        C  0.32389516  0.91714597  0.16549643     0.42700
N123        N  0.27241400  0.05819106  0.05268010    -0.25500
C124        C  0.18241872  0.89434172  0.07976765    -0.06400
N125        N  0.21085289  0.10293081  0.04460159    -0.46600
N126        N  0.29929321  0.93567769  0.17536475    -0.46800
C127        C  0.19267156  0.86369706  0.05702896     0.42500
N128        N  0.20117178  0.94673565  0.13801002     0.01300
N129        N  0.27542208  0.94144779  0.05552679    -0.25500
N130        N  0.19446357  0.05549761  0.07741250    -0.26000
N131        N  0.29544597  0.94454833  0.07335815     0.01000
H132        H  0.26403931  0.88132670  0.02745290     0.06900
H133        H  0.34029133  0.92556071  0.12269290     0.06900
N134        N  0.21837096  0.95167681  0.15852621    -0.26100
N135        N  0.29799292  0.06615186  0.12942833    -0.25700
N136        N  0.21437168  0.93801087  0.05922518     0.01400
C137        C  0.17865707  0.11504152  0.16216731     0.42700
C138        C  0.27129838  0.10266096  0.03812229    -0.06900
N139        N  0.29975316  0.95287138  0.13230248    -0.25700
H140        H  0.33776766  0.09409675  0.11809891     0.06900
N141        N  0.17606510  0.08871488  0.13917988    -0.46900
H142        H  0.25608454  0.10932023  0.02291868     0.06900
C143        C  0.30336202  0.87007925  0.05332735     0.42600
C144        C  0.17953541  0.10042383  0.07770109    -0.06400
Co145      Co  0.24354078  0.99828421  0.05521982     0.73800
N146        N  0.30337448  0.11023750  0.07040042    -0.46600
C147        C  0.17980798  0.90391156  0.16913268     0.42800
N148        N  0.21294010  0.89296611  0.04561933    -0.46600
Co149      Co  0.29625434  0.00650845  0.10107405     0.73900
C150        C  0.32330147  0.92695171  0.13681078    -0.06900
C151        C  0.20564356  0.09748999  0.17354756    -0.06500
N152        N  0.19711106  0.93916290  0.07959215    -0.26000
N153        N  0.29787721  0.09005002  0.17156857    -0.46800
H154        H  0.21401459  0.92725424  0.19993210     0.06900
C155        C  0.27861766  0.89591254  0.04192466    -0.06900
Cl156      Cl  0.24722988  0.00345331  0.10540012    -0.49900
C157        C  0.29103545  0.13897775  0.05066243     0.42600
H158        H  0.16787182  0.88299718  0.09514577     0.06800
N159        N  0.31207012  0.90238374  0.07320650    -0.46600
C160        C  0.18280110  0.11172313  0.34250307     0.42500
N161        N  0.21945383  0.06353649  0.35086313     0.01400
C162        C  0.21606436  0.88813294  0.45909747    -0.06500
H163        H  0.23534184  0.10822526  0.47960493     0.06800
C164        C  0.31955240  0.08632743  0.43057971    -0.06900
Co165      Co  0.20282454  0.99948781  0.39940064     0.74200
N166        N  0.22294345  0.05220460  0.44926581    -0.26100
Co167      Co  0.25173360  0.99032200  0.44825787     0.74100
C168        C  0.30870971  0.11854674  0.45229203     0.42600
N169        N  0.30400162  0.05009012  0.37049680     0.01000
N170        N  0.28440282  0.04654531  0.44830961     0.01100
N171        N  0.18803065  0.89120196  0.42303277    -0.46900
H172        H  0.16367246  0.08973568  0.38262499     0.06800
N173        N  0.20361258  0.05408992  0.43070464     0.01400
N174        N  0.27936595  0.92644889  0.44453281     0.01100
C175        C  0.29328401  0.84459666  0.44180801     0.42700
N176        N  0.28658811  0.05643745  0.35010813    -0.25500
C177        C  0.17847052  0.92264116  0.36155849    -0.06400
N178        N  0.20674849  0.09175538  0.33159379    -0.46600
N179        N  0.27550733  0.87804055  0.45429068    -0.46800
C180        C  0.17979744  0.91491391  0.33297179     0.42500
N181        N  0.20217925  0.93584011  0.42585255     0.01300
N182        N  0.28362483  0.94617395  0.34535149    -0.25500
N183        N  0.20361317  0.06097799  0.37247102    -0.26000
N184        N  0.29956255  0.93810016  0.36665216     0.01000
H185        H  0.29112813  0.92910186  0.30320705     0.06900
H186        H  0.32319491  0.86577968  0.40761975     0.06900
N187        N  0.21963004  0.93430545  0.44607793    -0.26100
N188        N  0.30316153  0.04383562  0.42922651    -0.25700
N189        N  0.21768672  0.95172530  0.34614696     0.01400
C190        C  0.19846222  0.12773055  0.45208211     0.42700
C191        C  0.29993013  0.08583853  0.33128050    -0.06900
N192        N  0.29799929  0.92673338  0.42531074    -0.25700
H193        H  0.33544849  0.09637141  0.41632575     0.06900
N194        N  0.18902952  0.09867992  0.43136672    -0.46900
H195        H  0.29284201  0.09226674  0.31092178     0.06900
C196        C  0.32228624  0.89931966  0.33526233     0.42600
C197        C  0.18157541  0.09174804  0.36960951    -0.06400
Co198      Co  0.25169080  0.00491820  0.34735837     0.73800
N199        N  0.32796801  0.07349898  0.36679417    -0.46600
C200        C  0.19549384  0.85876469  0.44342166     0.42800
N201        N  0.20471402  0.93346210  0.32443163    -0.46600
Co202      Co  0.30119905  0.98951580  0.39835370     0.73900
C203        C  0.30870148  0.87780058  0.42293023    -0.06900
C204        C  0.22127672  0.09690632  0.46388057    -0.06500
N205        N  0.20158962  0.94819689  0.36756700    -0.26000
N206        N  0.28651232  0.09158234  0.46209443    -0.46800
H207        H  0.22829190  0.87476135  0.47593564     0.06900
C208        C  0.29679712  0.92366096  0.32405181    -0.06900
Cl209      Cl  0.25189072  0.99647826  0.39812829    -0.49900
C210        C  0.32743202  0.09793584  0.34298106     0.42600
H211        H  0.16045488  0.92092474  0.37440029     0.06800
N212        N  0.32207003  0.91069332  0.36136862    -0.46600
C213        C  0.05073271  0.38576349  0.18635017     0.42500
N214        N  0.03215770  0.38401284  0.22616433     0.01400
C215        C  0.04669417  0.14448502  0.29493345    -0.06500
H216        H  0.03501119  0.11363933  0.20485845     0.06800
C217        C  0.42868422  0.23119265  0.21164256    -0.06900
Co218      Co  0.05083581  0.28631876  0.25522226     0.74200
N219        N  0.03209722  0.19006456  0.22434513    -0.26100
Co220      Co  0.50157776  0.18655718  0.25211653     0.74100
C221        C  0.42942180  0.17767455  0.20143767     0.42600
N222        N  0.45566002  0.35127470  0.22774306     0.01000
N223        N  0.46703289  0.19332574  0.22455597     0.01100
N224        N  0.07401286  0.21615299  0.29587243    -0.46900
H225        H  0.07919873  0.31605887  0.19655080     0.06800
N226        N  0.04978392  0.22991161  0.22525182     0.01400
N227        N  0.47009986  0.18794166  0.28220160     0.01100
C228        C  0.43461216  0.16680222  0.30636610     0.42700
N229        N  0.47477562  0.38815480  0.22791402    -0.25500
C230        C  0.06452557  0.33906321  0.31023471    -0.06400
N231        N  0.03121954  0.40841684  0.20240409    -0.46600
N232        N  0.45829707  0.14732790  0.29498040    -0.46800
C233        C  0.05292129  0.38212131  0.32623030     0.42500
N234        N  0.05115239  0.22561861  0.28236897     0.01300
N235        N  0.47696791  0.38270940  0.28838332    -0.25500
N236        N  0.05061568  0.34552270  0.22628867    -0.26000
N237        N  0.45782422  0.34590454  0.28776235     0.01000
H238        H  0.49016975  0.43560203  0.32023179     0.06900
H239        H  0.41362476  0.24574953  0.29841566     0.06900
N240        N  0.03415628  0.18470571  0.28129689    -0.26100
N241        N  0.45158638  0.23659298  0.22619758    -0.25700
N242        N  0.03356912  0.38123145  0.28708711     0.01400
C243        C  0.06982858  0.17538115  0.19824631     0.42700
C244        C  0.47285216  0.41571294  0.20483030    -0.06900
N245        N  0.45407934  0.23061423  0.28329337    -0.25700
H246        H  0.41123437  0.25825109  0.21226242     0.06900
N247        N  0.07180133  0.22238172  0.21028333    -0.46900
H248        H  0.48652086  0.44676354  0.19832957     0.06900
C249        C  0.45468271  0.37732611  0.32811758     0.42600
C250        C  0.06398284  0.34505631  0.20269627    -0.06400
Co251      Co  0.50605085  0.38590411  0.25680984     0.73800
N252        N  0.44136989  0.35018906  0.20507600    -0.46600
C253        C  0.07308470  0.16668232  0.30501376     0.42800
N254        N  0.03380538  0.40631231  0.31054121    -0.46600
Co255      Co  0.45481989  0.29195846  0.25627905     0.73900
C256        C  0.43197444  0.22112686  0.29822825    -0.06900
C257        C  0.04312681  0.15301185  0.20766126    -0.06500
N258        N  0.05116961  0.34125426  0.28652729    -0.26000
N259        N  0.45377580  0.15581222  0.21059336    -0.46800
H260        H  0.03970424  0.10389972  0.29547029     0.06900
C261        C  0.47616934  0.40568093  0.31296520    -0.06900
Cl262      Cl  0.50393908  0.28663733  0.25466986    -0.49900
C263        C  0.45122280  0.38926123  0.18958737     0.42600
H264        H  0.07911317  0.30887899  0.31638942     0.06800
N265        N  0.44455656  0.34115031  0.31087669    -0.46600
C266        C  0.07063969  0.83787810  0.20177166     0.42500
N267        N  0.03457799  0.81817598  0.22518971     0.01400
C268        C  0.02758909  0.59476772  0.30555640    -0.06500
H269        H  0.01277886  0.57699684  0.18718456     0.06800
C270        C  0.43108056  0.67549082  0.20371183    -0.06900
Co271      Co  0.04821704  0.71462420  0.25258312     0.74200
N272        N  0.02653268  0.62601553  0.21979887    -0.26100
Co273      Co  0.49750898  0.62559067  0.25132736     0.74100
C274        C  0.44174754  0.63614828  0.18472137     0.42600
N275        N  0.45079444  0.78923422  0.22872760     0.01000
N276        N  0.46586432  0.63462504  0.22187561     0.01100
N277        N  0.05930822  0.65884163  0.30501122    -0.46900
H278        H  0.09020885  0.75700200  0.20851802     0.06800
N279        N  0.04642030  0.66104995  0.22155684     0.01400
N280        N  0.46819540  0.62760337  0.28282556     0.01100
C281        C  0.45037026  0.62341774  0.32253551     0.42700
N282        N  0.46907910  0.82807882  0.22900274    -0.25500
C283        C  0.07527317  0.77799628  0.29301932    -0.06400
N284        N  0.04701747  0.85832694  0.21267556    -0.46600
N285        N  0.46858073  0.59987579  0.30556919    -0.46800
C286        C  0.07748394  0.83433343  0.29609880     0.42500
N287        N  0.04610031  0.65624434  0.28174190     0.01300
N288        N  0.47177044  0.82297618  0.28578898    -0.25500
N289        N  0.05023670  0.77501396  0.22473176    -0.26000
N290        N  0.45412229  0.78312376  0.28608241     0.01000
H291        H  0.46844900  0.90194730  0.30233569     0.06900
H292        H  0.42384013  0.69721527  0.31553149     0.06900
N293        N  0.02675135  0.61989506  0.28140796    -0.26100
N294        N  0.44788007  0.67335182  0.22505483    -0.25700
N295        N  0.03645540  0.81547092  0.28142339     0.01400
C296        C  0.04922836  0.63464050  0.18045644     0.42700
C297        C  0.45757864  0.86941631  0.21551873    -0.06900
N298        N  0.45098294  0.66810546  0.28429093    -0.25700
H299        H  0.41468150  0.70403849  0.20162272     0.06900
N300        N  0.06023408  0.66718883  0.19885499    -0.46900
H301        H  0.46581273  0.90910251  0.21525893     0.06900
C302        C  0.43393921  0.84087388  0.31108255     0.42600
C303        C  0.07245175  0.78325466  0.20970100    -0.06400
Co304      Co  0.00268383  0.82110038  0.25432419     0.73800
N305        N  0.42775015  0.80156424  0.21600375    -0.46600
C306        C  0.04910274  0.62155818  0.32156884     0.42800
N307        N  0.05248345  0.85556354  0.28904700    -0.46600
Co308      Co  0.45088179  0.72792244  0.25603572     0.73900
C309        C  0.43817558  0.66764273  0.30816918    -0.06900
C310        C  0.02717335  0.60568087  0.19472431    -0.06500
N311        N  0.05061239  0.77056187  0.28204522    -0.26000
N312        N  0.46310841  0.61166993  0.19789609    -0.46800
H313        H  0.01344182  0.56467721  0.31229645     0.06900
C314        C  0.46064076  0.86202140  0.30112896    -0.06900
Cl315      Cl  0.50019548  0.72416223  0.25403419    -0.49900
C316        C  0.42989658  0.85109099  0.20674902     0.42600
H317        H  0.09178583  0.74946978  0.29145606     0.06800
N318        N  0.43219431  0.79225786  0.30086804    -0.46600
C319        C  0.39133259  0.83428428  0.33598423    -0.05800
C320        C  0.40709332  0.86561087  0.31863541     0.00200
C321        C  0.39319633  0.90444066  0.30279611    -0.08400
C322        C  0.36434825  0.91320574  0.30669437    -0.05800
C323        C  0.34878992  0.88028927  0.32369259     0.00100
C324        C  0.36250658  0.83819966  0.33705324    -0.08300
C325        C  0.34749751  0.79547156  0.35244192     0.62000
H326        H  0.40143609  0.80221310  0.34685429     0.12700
H327        H  0.35395198  0.94614863  0.29694300     0.12800
C328        C  0.40855849  0.93521266  0.28155550     0.62300
F329        F  0.35566734  0.74645249  0.34274704    -0.22900
F330        F  0.31905540  0.79915536  0.34971889    -0.20200
F331        F  0.35448275  0.79880698  0.37930709    -0.19900
F332        F  0.42034271  0.90074871  0.26325296    -0.19900
F333        F  0.42908023  0.96476328  0.29359390    -0.20300
F334        F  0.39109492  0.96892420  0.26757430    -0.22900
C335        C  0.10412714  0.90912011  0.31369321    -0.05800
C336        C  0.10422658  0.86328162  0.29814852     0.00200
C337        C  0.13028564  0.84353293  0.28829238    -0.08400
C338        C  0.15493349  0.86487638  0.29850054    -0.05800
C339        C  0.15463258  0.90713252  0.31640912     0.00100
C340        C  0.12882274  0.93243801  0.32239655    -0.08300
C341        C  0.12575096  0.98299922  0.33846266     0.62000
H342        H  0.08446734  0.92563735  0.32027362     0.12700
H343        H  0.17463838  0.84651460  0.29347467     0.12800
C344        C  0.13382301  0.79963946  0.26775880     0.62300
F345        F  0.10773044  0.01703270  0.32530417    -0.22900
F346        F  0.15052715  0.00888979  0.34154857    -0.20200
F347        F  0.11486683  0.97156443  0.36347990    -0.19900
F348        F  0.11064404  0.79401440  0.25201047    -0.19900
F349        F  0.13993521  0.75251581  0.28073230    -0.20300
F350        F  0.15550782  0.81087861  0.25058530    -0.22900
C351        C  0.36402453  0.10027087  0.30692249    -0.05800
C352        C  0.35376317  0.11911917  0.33165585     0.00200
C353        C  0.37173464  0.14908374  0.34833144    -0.08400
C354        C  0.39945692  0.15592852  0.34078513    -0.05800
C355        C  0.40968969  0.13837739  0.31606014     0.00100
C356        C  0.39154773  0.11111279  0.29847521    -0.08300
C357        C  0.40120209  0.09550499  0.27065238     0.62000
H358        H  0.35053507  0.07661859  0.29443840     0.12700
H359        H  0.41283626  0.17945566  0.35353577     0.12800
C360        C  0.36261027  0.17635344  0.37404175     0.62300
F361        F  0.38038661  0.07176278  0.25592522    -0.22900
F362        F  0.42333640  0.06082567  0.27262671    -0.20200
F363        F  0.40971241  0.13990600  0.25690877    -0.19900
F364        F  0.37426717  0.15054903  0.39581540    -0.19900
F365        F  0.33423070  0.17775626  0.37695697    -0.20300
F366        F  0.37159109  0.22821057  0.37396211    -0.22900
C367        C  0.11795341  0.11984258  0.29723141    -0.05800
C368        C  0.09909471  0.14304817  0.31545496     0.00200
C369        C  0.10899832  0.16052350  0.34056866    -0.08400
C370        C  0.13723789  0.15481547  0.34655854    -0.05800
C371        C  0.15606370  0.12856326  0.32936263     0.00100
C372        C  0.14628940  0.11126912  0.30390676    -0.08300
C373        C  0.16545539  0.08492355  0.28377514     0.62000
H374        H  0.11044442  0.10982431  0.27742076     0.12700
H375        H  0.14474805  0.16954795  0.36562073     0.12800
C376        C  0.08951612  0.18514353  0.36115506     0.62300
F377        F  0.15208198  0.07424301  0.25978602    -0.22900
F378        F  0.17538829  0.03755611  0.29398455    -0.20200
F379        F  0.18742983  0.11806664  0.27832373    -0.19900
F380        F  0.06803067  0.15063606  0.36628039    -0.19900
F381        F  0.07873749  0.23225971  0.35152961    -0.20300
F382        F  0.10275224  0.19564532  0.38523138    -0.22900
C383        C  0.37990889  0.86918450  0.21436454    -0.05800
C384        C  0.40416013  0.88104100  0.19968186     0.00200
C385        C  0.40183952  0.91272805  0.17647350    -0.08400
C386        C  0.37523108  0.92851449  0.16786037    -0.05800
C387        C  0.35071105  0.91089224  0.18055860     0.00100
C388        C  0.35318080  0.88347965  0.20520816    -0.08300
C389        C  0.32785583  0.86807400  0.22134527     0.62000
H390        H  0.38197948  0.84598597  0.23257143     0.12700
H391        H  0.37356591  0.95322789  0.15021140     0.12800
C392        C  0.42705844  0.92676749  0.15984267     0.62300
F393        F  0.33485928  0.83994673  0.24428877    -0.22900
F394        F  0.31062199  0.83683170  0.20593540    -0.20200
F395        F  0.31371768  0.91331233  0.22916464    -0.19900
F396        F  0.42008983  0.95619357  0.13732171    -0.19900
F397        F  0.44024227  0.88097390  0.15130686    -0.20300
F398        F  0.44513795  0.95627177  0.17514599    -0.22900
C399        C  0.13509127  0.86032149  0.16242948    -0.05800
C400        C  0.15265824  0.88637276  0.18084067     0.00200
C401        C  0.14130428  0.90265100  0.20587785    -0.08400
C402        C  0.11306824  0.89106254  0.21153083    -0.05800
C403        C  0.09589225  0.86558907  0.19264810     0.00100
C404        C  0.10697197  0.85131099  0.16750722    -0.08300
C405        C  0.08875647  0.82653756  0.14598533     0.62000
H406        H  0.14350808  0.84781823  0.14327199     0.12700
H407        H  0.10451205  0.89974120  0.23115940     0.12800
C408        C  0.15872398  0.93116816  0.22657084     0.62300
F409        F  0.10245838  0.82151758  0.12176042    -0.22900
F410        F  0.06565341  0.85818689  0.14182976    -0.20200
F411        F  0.08027883  0.77669253  0.15381164    -0.19900
F412        F  0.16867550  0.97784948  0.21592881    -0.19900
F413        F  0.18073668  0.89925015  0.23415708    -0.20300
F414        F  0.14364253  0.94358797  0.24937325    -0.22900
C415        C  0.37396750  0.10034170  0.16274647    -0.05800
C416        C  0.34915227  0.11887797  0.17495250     0.00200
C417        C  0.35162490  0.14986733  0.19849426    -0.08400
C418        C  0.37835400  0.16437622  0.20745847    -0.05800
C419        C  0.40299744  0.14969738  0.19383570     0.00100
C420        C  0.40063378  0.11641510  0.17120204    -0.08300
C421        C  0.42596602  0.10081252  0.15497388     0.62000
H422        H  0.37253816  0.07403002  0.14572995     0.12700
H423        H  0.38001336  0.18989712  0.22479409     0.12800
C424        C  0.32629844  0.16996591  0.21344302     0.62300
F425        F  0.41915243  0.07032112  0.13285322    -0.22900
F426        F  0.44401180  0.07193010  0.17089403    -0.20200
F427        F  0.43915117  0.14581978  0.14581763    -0.19900
F428        F  0.31027348  0.12774033  0.22155404    -0.19900
F429        F  0.31089684  0.20270979  0.19680952    -0.20300
F430        F  0.33336607  0.19843926  0.23618749    -0.22900
C431        C  0.13717478  0.09710687  0.18972782    -0.05800
C432        C  0.15273665  0.13389835  0.17493124     0.00200
C433        C  0.13945241  0.18024495  0.16525177    -0.08400
C434        C  0.11140207  0.18891684  0.17138540    -0.05800
C435        C  0.09580852  0.15290968  0.18667150     0.00100
C436        C  0.10882374  0.10564950  0.19576956    -0.08300
C437        C  0.09300210  0.06418503  0.21136971     0.62000
H438        H  0.14714748  0.06031318  0.19540905     0.12700
H439        H  0.10141964  0.22523630  0.16479644     0.12800
C440        C  0.15482555  0.22030631  0.14816722     0.62300
F441        F  0.10968545  0.02163670  0.21842231    -0.22900
F442        F  0.07160034  0.04529514  0.19569447    -0.20200
F443        F  0.08241902  0.08587326  0.23470848    -0.19900
F444        F  0.16079370  0.19854285  0.12338594    -0.19900
F445        F  0.17920785  0.23435502  0.16079996    -0.20300
F446        F  0.13937491  0.26599169  0.14395971    -0.22900
C447        C  0.31899460  0.73285492  0.02483835    -0.05800
C448        C  0.31343762  0.70048470  0.04722043     0.00200
C449        C  0.31143785  0.72485954  0.07284105    -0.08400
C450        C  0.30811917  0.78051269  0.07422734    -0.05800
C451        C  0.31076532  0.81259775  0.05135293     0.00100
C452        C  0.31992844  0.78878053  0.02717885    -0.08300
C453        C  0.33442607  0.82151825  0.00585196     0.62000
H454        H  0.32385454  0.71399967  0.00586073     0.12700
H455        H  0.30353872  0.79939907  0.09325547     0.12800
C456        C  0.31327917  0.69262922  0.09859783     0.62300
F457        F  0.34157693  0.79006022  0.48286071    -0.22900
F458        F  0.35897883  0.84011590  0.01643883    -0.20200
F459        F  0.31984442  0.86353633  0.49723142    -0.19900
F460        F  0.33954690  0.67101157  0.10072767    -0.19900
F461        F  0.29412958  0.65216086  0.09860927    -0.20300
F462        F  0.30861816  0.72361731  0.12109330    -0.22900
C463        C  0.27749525  0.28730825  0.03639506    -0.05800
C464        C  0.29526953  0.31131839  0.05500016     0.00200
C465        C  0.30990000  0.27818273  0.07321814    -0.08400
C466        C  0.30765568  0.22285450  0.07057107    -0.05800
C467        C  0.29125586  0.19864042  0.05065806    -0.04100
C468        C  0.27573851  0.23224551  0.03302982    -0.08300
C469        C  0.25748888  0.21290071  0.01022962     0.62000
H470        H  0.26475759  0.31210529  0.02383257     0.12700
H471        H  0.31951304  0.19792752  0.08407535     0.12800
C472        C  0.32865034  0.29983393  0.09494614     0.62300
F473        F  0.24969832  0.25337986  0.99300736    -0.22900
F474        F  0.23367285  0.19120209  0.02021920    -0.20200
F475        F  0.27182070  0.17383254  0.49461372    -0.19900
F476        F  0.31590413  0.34152248  0.10818579    -0.19900
F477        F  0.35300156  0.31634447  0.08329667    -0.20300
F478        F  0.33521689  0.26184928  0.11404192    -0.22900
C479        C  0.30248734  0.75925597  0.41815012    -0.05800
C480        C  0.29122058  0.78499915  0.44091795     0.00200
C481        C  0.27862097  0.75251246  0.46100186    -0.08400
C482        C  0.28041150  0.69728525  0.45833645    -0.05800
C483        C  0.29537675  0.67263795  0.43771929     0.00100
C484        C  0.30426399  0.70376083  0.41591733    -0.08300
C485        C  0.31449448  0.68027500  0.38966213     0.62000
H486        H  0.30955550  0.78250705  0.40139785     0.12700
H487        H  0.27019887  0.67276373  0.47294109     0.12800
C488        C  0.26259348  0.77259128  0.48518965     0.62300
F489        F  0.30301727  0.70761812  0.36829350    -0.22900
F490        F  0.30690666  0.62794635  0.38656380    -0.20200
F491        F  0.34301141  0.68412143  0.38849261    -0.19900
F492        F  0.23548264  0.78111148  0.47824060    -0.19900
F493        F  0.27214961  0.81918847  0.99483387    -0.20300
F494        F  0.26349698  0.73646916  0.00610974    -0.22900
C495        C  0.30517693  0.20781512  0.43083572    -0.05800
C496        C  0.31204760  0.17748772  0.45358721     0.00200
C497        C  0.32360250  0.20366859  0.47605297    -0.08400
C498        C  0.32237330  0.25980957  0.47721880    -0.05800
C499        C  0.31454029  0.29013840  0.45464104     0.00100
C500        C  0.30885331  0.26328509  0.43026662    -0.08300
C501        C  0.30898531  0.29220779  0.40343787     0.62000
H502        H  0.29811940  0.18735496  0.41304068     0.12700
H503        H  0.32946205  0.28037342  0.49500097     0.12800
C504        C  0.33956058  0.17246881  0.49704857     0.62300
F505        F  0.29913978  0.26084448  0.38279117    -0.22900
F506        F  0.33583372  0.30580529  0.39732900    -0.20200
F507        F  0.29299783  0.33781252  0.40437769    -0.19900
F508        F  0.36348725  0.15252877  0.48550992    -0.19900
F509        F  0.32562408  0.13327055  0.00732042    -0.20300
F510        F  0.34713875  0.20824164  0.01916855    -0.22900
C511        C  0.43515969  0.56715769  0.35976581    -0.05800
C512        C  0.44826173  0.61338973  0.35189372     0.00200
C513        C  0.45680996  0.65015818  0.37186301    -0.08400
C514        C  0.45008844  0.64058234  0.39920443    -0.05800
C515        C  0.43507892  0.59569084  0.40695873     0.00100
C516        C  0.42810258  0.55780442  0.38667291    -0.08300
C517        C  0.41204416  0.50810284  0.39272343     0.62000
H518        H  0.42883105  0.53959719  0.34427563     0.12700
H519        H  0.45502234  0.66971002  0.41439855     0.12800
C520        C  0.47227315  0.70003258  0.36432231     0.62300
F521        F  0.41588219  0.47003181  0.37316766    -0.22900
F522        F  0.38399321  0.51910711  0.39424143    -0.20200
F523        F  0.42126359  0.48764280  0.41661514    -0.19900
F524        F  0.45420075  0.73607298  0.35276760    -0.19900
F525        F  0.49322293  0.68819007  0.34631324    -0.20300
F526        F  0.48415708  0.72350374  0.38659989    -0.22900
C527        C  0.42163268  0.66438882  0.11035232    -0.05800
C528        C  0.43014994  0.61759241  0.09772336     0.00200
C529        C  0.44373745  0.57862331  0.11351241    -0.08400
C530        C  0.44423548  0.58434803  0.14186004    -0.05800
C531        C  0.43633338  0.63181689  0.15471863     0.00100
C532        C  0.42609997  0.67402886  0.13798912    -0.08300
C533        C  0.41982845  0.72962425  0.14804525     0.62000
H534        H  0.41077420  0.69352347  0.09821560     0.12700
H535        H  0.45265007  0.55261429  0.15411048     0.12800
C536        C  0.45985632  0.53401747  0.10036438     0.62300
F537        F  0.41683843  0.76527532  0.12705840    -0.22900
F538        F  0.44139144  0.74775159  0.16373917    -0.20200
F539        F  0.39523396  0.72991886  0.16221878    -0.19900
F540        F  0.48085933  0.55518433  0.08493267    -0.19900
F541        F  0.44292564  0.50506229  0.08400007    -0.20300
F542        F  0.47162754  0.49998620  0.11904043    -0.22900
C543        C  0.46851660  0.39634731  0.37629003    -0.05800
C544        C  0.44907950  0.37594051  0.35787969     0.00200
C545        C  0.42444842  0.35356317  0.36833318    -0.08400
C546        C  0.42153392  0.34761897  0.39624499    -0.05800
C547        C  0.43918631  0.37265996  0.41471818     0.00100
C548        C  0.46343635  0.39727813  0.40450910    -0.08300
C549        C  0.48355139  0.42546511  0.42282509     0.62000
H550        H  0.48724714  0.41358554  0.36832646     0.12700
H551        H  0.40304270  0.32875542  0.40392444     0.12800
C552        C  0.39952634  0.34185591  0.35072082     0.62300
F553        F  0.47087600  0.46817542  0.43518695    -0.22900
F554        F  0.50595611  0.44439084  0.40866026    -0.20200
F555        F  0.49328777  0.39067667  0.44210877    -0.19900
F556        F  0.40315937  0.29377162  0.33817335    -0.19900
F557        F  0.39580531  0.38143539  0.33177691    -0.20300
F558        F  0.37538981  0.33957546  0.36555146    -0.22900
C559        C  0.42394226  0.43081799  0.15443637    -0.05800
C560        C  0.44462089  0.39489353  0.16083318     0.00200
C561        C  0.45671465  0.36331141  0.14040427    -0.08400
C562        C  0.44738739  0.36937504  0.11359554    -0.05800
C563        C  0.42566979  0.40443085  0.10700226     0.00100
C564        C  0.41410368  0.43686987  0.12818086    -0.08300
C565        C  0.39070924  0.47708569  0.12525269     0.62000
H566        H  0.41472609  0.45349205  0.17068591     0.12700
H567        H  0.45591232  0.34453952  0.09786811     0.12800
C568        C  0.47832687  0.32172095  0.14727575     0.62300
F569        F  0.39345614  0.51822003  0.14342477    -0.22900
F570        F  0.36560269  0.45297714  0.13021400    -0.20200
F571        F  0.39057602  0.49964116  0.10031636    -0.19900
F572        F  0.46629728  0.28182443  0.16219790    -0.19900
F573        F  0.49918748  0.34424461  0.16222167    -0.20300
F574        F  0.98412049  0.28235655  0.12709641    -0.22900
C575        C  0.17475319  0.71789050  0.46274104    -0.05800
C576        C  0.19212237  0.68703039  0.44631396     0.00200
C577        C  0.20844516  0.71261742  0.42664410    -0.08400
C578        C  0.20882454  0.76879675  0.42567682    -0.05800
C579        C  0.19221894  0.79975618  0.44293984     0.00100
C580        C  0.17403840  0.77377688  0.46075702    -0.08300
C581        C  0.15394400  0.80576665  0.47740278     0.62000
H582        H  0.16170878  0.69780954  0.47716830     0.12700
H583        H  0.22219882  0.78892596  0.41157212     0.12800
C584        C  0.22434417  0.68016359  0.40616872     0.62300
F585        F  0.17078874  0.83626434  0.99465753    -0.22900
F586        F  0.13957994  0.83787575  0.96100267    -0.20200
F587        F  0.13673109  0.77361853  0.49232759    -0.19900
F588        F  0.20577007  0.65316004  0.39017117    -0.19900
F589        F  0.24126527  0.64371503  0.41893531    -0.20300
F590        F  0.24059864  0.71161947  0.38984888    -0.22900
C591        C  0.21737645  0.21698632  0.44370473    -0.05800
C592        C  0.19523324  0.18620204  0.45268058     0.00200
C593        C  0.16979818  0.21142782  0.45901401    -0.08400
C594        C  0.16850971  0.26743409  0.45934659    -0.05800
C595        C  0.19152429  0.29821717  0.45223584     0.00100
C596        C  0.21524040  0.27256800  0.44209184    -0.08300
C597        C  0.23724436  0.30343023  0.42768724     0.62000
H598        H  0.23616723  0.19707913  0.43718341     0.12700
H599        H  0.14955216  0.28748677  0.46508259     0.12800
C600        C  0.14434337  0.17895499  0.46529533     0.62300
F601        F  0.25257247  0.26995949  0.41157019    -0.22900
F602        F  0.25417296  0.32776226  0.44622466    -0.20200
F603        F  0.22546805  0.34148342  0.41114022    -0.19900
F604        F  0.14935305  0.14762729  0.48758433    -0.19900
F605        F  0.13811727  0.14680640  0.44368809    -0.20300
F606        F  0.12143254  0.21058591  0.47031058    -0.22900
C607        C  0.16854901  0.72165482  0.04617193    -0.05800
C608        C  0.19317523  0.69345240  0.05163748     0.00200
C609        C  0.21610033  0.72131157  0.06147048    -0.08400
C610        C  0.21589408  0.77693006  0.06068099    -0.05800
C611        C  0.19156322  0.80525641  0.05506667     0.00100
C612        C  0.16682529  0.77710139  0.04998694    -0.08300
C613        C  0.13870794  0.80439115  0.05119209     0.62000
H614        H  0.15024458  0.69951139  0.04074224     0.12700
H615        H  0.23426082  0.79870768  0.06635647     0.12800
C616        C  0.23937441  0.69229466  0.07523805     0.62300
F617        F  0.11756453  0.77094371  0.04345479    -0.22900
F618        F  0.13795240  0.84871085  0.03491249    -0.20200
F619        F  0.13361241  0.81992898  0.07728713    -0.19900
F620        F  0.25462916  0.66509877  0.05630967    -0.19900
F621        F  0.22900380  0.65678839  0.09382797    -0.20300
F622        F  0.25600561  0.72721638  0.08898892    -0.22900
C623        C  0.21151381  0.27568766  0.07192909    -0.05800
C624        C  0.19171458  0.30371732  0.05690521     0.00200
C625        C  0.17064299  0.27537328  0.04325128    -0.08400
C626        C  0.17157939  0.21961764  0.04330128    -0.05800
C627        C  0.19155931  0.19152123  0.05791852     0.00100
C628        C  0.21100396  0.21987917  0.07381233    -0.08300
C629        C  0.22951834  0.19243369  0.09435447     0.62000
H630        H  0.22658021  0.29812816  0.08324000     0.12700
H631        H  0.15609514  0.19730386  0.03255859     0.12800
C632        C  0.14668356  0.30352193  0.02939736     0.62300
F633        F  0.21361981  0.17451115  0.11543955    -0.22900
F634        F  0.24930714  0.22631370  0.10461688    -0.20200
F635        F  0.24309393  0.14978213  0.08326150    -0.19900
F636        F  0.15647850  0.33953864  0.01088772    -0.19900
F637        F  0.13073775  0.32978206  0.04811868    -0.20300
F638        F  0.12950529  0.26849803  0.01626742    -0.22900
C639        C  0.03542105  0.59837568  0.36971620    -0.05800
C640        C  0.05478543  0.62054004  0.35154459     0.00200
C641        C  0.07953425  0.64200087  0.36254244    -0.08400
C642        C  0.08317079  0.64281661  0.39051234    -0.05800
C643        C  0.06585823  0.61536919  0.40824998     0.00100
C644        C  0.04089937  0.59417206  0.39786986    -0.08300
C645        C  0.02040652  0.56726857  0.41629190     0.62000
H646        H  0.01637766  0.58262379  0.36163458     0.12700
H647        H  0.10165448  0.66073991  0.39873244     0.12800
C648        C  0.10354905  0.66049861  0.34527905     0.62300
F649        F  0.99726354  0.55025270  0.40246209    -0.22900
F650        F  0.01188363  0.60253764  0.43590877    -0.20200
F651        F  0.03259465  0.52374823  0.42841847    -0.19900
F652        F  0.09717624  0.70912690  0.33436060    -0.19900
F653        F  0.10898676  0.62407244  0.32516752    -0.20300
F654        F  0.12772127  0.66615270  0.35996775    -0.22900
C655        C  0.08417217  0.64916340  0.14510099    -0.05800
C656        C  0.05646551  0.63942500  0.15122557     0.00200
C657        C  0.03711537  0.64182924  0.12968774    -0.08400
C658        C  0.04665411  0.63892654  0.10281564    -0.05800
C659        C  0.07488480  0.64210088  0.09699336     0.00100
C660        C  0.09314266  0.65512957  0.11851081    -0.08300
C661        C  0.12214457  0.67585330  0.11464619     0.62000
H662        H  0.09898633  0.65381912  0.16130688     0.12700
H663        H  0.03224865  0.63185457  0.08655006     0.12800
C664        C  0.00674331  0.64594843  0.13487654     0.62300
F665        F  0.12579623  0.72063407  0.13019263    -0.22900
F666        F  0.12699957  0.69000570  0.08829287    -0.20200
F667        F  0.14108530  0.63791085  0.12292705    -0.19900
F668        F  0.49868883  0.67264639  0.15562193    -0.19900
F669        F  0.49961446  0.58693756  0.14207617    -0.20300
F670        F  0.49086168  0.65269841  0.11261053    -0.22900
C671        C  0.06634428  0.43958937  0.39582314    -0.05800
C672        C  0.06244168  0.39529480  0.41259796     0.00200
C673        C  0.05388182  0.34707715  0.40087704    -0.08400
C674        C  0.04921704  0.34492932  0.37279764    -0.05800
C675        C  0.05481873  0.38845952  0.35598578     0.00100
C676        C  0.06396363  0.43615718  0.36766874    -0.08300
C677        C  0.07372532  0.48136084  0.35017598     0.62000
H678        H  0.07420953  0.47554882  0.40480725     0.12700
H679        H  0.04242522  0.30843042  0.36359068     0.12800
C680        C  0.05140014  0.29760163  0.41793522     0.62300
F681        F  0.08510601  0.52171641  0.36523510    -0.22900
F682        F  0.05166149  0.50128138  0.33564711    -0.20200
F683        F  0.09388113  0.46338096  0.33260969    -0.19900
F684        F  0.53120637  0.30869596  0.43677823    -0.19900
F685        F  0.07694493  0.28473700  0.42882852    -0.20300
F686        F  0.53974428  0.25605045  0.40145611    -0.22900
C687        C  0.06008465  0.34256019  0.14185397    -0.05800
C688        C  0.05195601  0.38848816  0.15608898     0.00200
C689        C  0.04729431  0.43568793  0.14123150    -0.08400
C690        C  0.05216162  0.43596237  0.11319049    -0.05800
C691        C  0.06281216  0.39155544  0.09972593     0.00100
C692        C  0.06635521  0.34372571  0.11415187    -0.08300
C693        C  0.07851252  0.29508520  0.10058668     0.62000
H694        H  0.06295068  0.30592221  0.15279716     0.12700
H695        H  0.05001870  0.47241512  0.10185985     0.12800
C696        C  0.03907818  0.48667785  0.15495387     0.62300
F697        F  0.10592892  0.30418975  0.09429808    -0.22900
F698        F  0.06400068  0.28432623  0.07727804    -0.20200
F699        F  0.07739318  0.25078703  0.11694162    -0.19900
F700        F  0.05707350  0.49731093  0.17586356    -0.19900
F701        F  0.52121307  0.49080220  0.16735822    -0.20300
F702        F  0.54906468  0.53261929  0.13857925    -0.22900
C703        C  0.19221879  0.36160439  0.55580929     0.42500
N704        N  0.19073220  0.43738615  0.53546640     0.01400
C705        C  0.07295671  0.59820136  0.54636776    -0.06500
H706        H  0.04604916  0.42130260  0.54135606     0.06800
C707        C  0.10638716  0.40637413  0.93868500    -0.06900
Co708      Co  0.14147262  0.49995200  0.55315279     0.74200
N709        N  0.08817966  0.44874503  0.53709409    -0.26100
Co710      Co  0.08860634  0.50364601  0.50438378     0.74100
C711        C  0.07697361  0.39658203  0.93938643     0.42600
N712        N  0.17148251  0.43263845  0.95979909     0.01000
N713        N  0.08873851  0.44498725  0.97368486     0.01100
N714        N  0.10977128  0.59078730  0.57342472    -0.46900
H715        H  0.15576444  0.38425045  0.58288827     0.06800
N716        N  0.10952024  0.44566134  0.55374764     0.01400
N717        N  0.09094703  0.55747947  0.97066606     0.01100
C718        C  0.08106678  0.59906151  0.93343819     0.42700
N719        N  0.19174288  0.43370863  0.97742879    -0.25500
C720        C  0.17259172  0.60266567  0.56501538    -0.06400
N721        N  0.20354104  0.39063828  0.53578297    -0.46600
N722        N  0.07057108  0.58351640  0.95776533    -0.46800
C723        C  0.19324621  0.63428642  0.55170448     0.42500
N724        N  0.11218546  0.55940690  0.55253700     0.01300
N725        N  0.19285088  0.55267957  0.97473567    -0.25500
N726        N  0.17082241  0.43977863  0.55348266    -0.26000
N727        N  0.17316931  0.55162612  0.95647273     0.01000
H728        H  0.22307074  0.61257955  0.98482004     0.06900
H729        H  0.12208806  0.57424120  0.91469884     0.06900
N730        N  0.09102560  0.56230171  0.53568314    -0.26100
N731        N  0.11132277  0.43886113  0.95904954    -0.25700
N732        N  0.19177200  0.55679724  0.53352052     0.01400
C733        C  0.07829121  0.39952374  0.57395536     0.42700
C734        C  0.20530553  0.38693893  0.97636854    -0.06900
N735        N  0.11287918  0.55231542  0.95497118    -0.25700
H736        H  0.11991735  0.40209587  0.92148734     0.06900
N737        N  0.10428823  0.41758955  0.57548976    -0.46900
H738        H  0.22179334  0.37426616  0.98962731     0.06900
C739        C  0.19297920  0.62707217  0.94983276     0.42600
C740        C  0.17088273  0.39488243  0.56785870    -0.06400
Co741      Co  0.19300453  0.49533901  0.00548736     0.73800
N742        N  0.16936576  0.38627860  0.94748953    -0.46600
C743        C  0.08615820  0.61810322  0.57152722     0.42800
N744        N  0.20439640  0.60340963  0.53223380    -0.46600
Co745      Co  0.14254981  0.49371529  0.95762040     0.73900
C746        C  0.10892140  0.57828798  0.93217506    -0.06900
C747        C  0.06720574  0.42140424  0.54848700    -0.06500
N748        N  0.17234845  0.55641945  0.55201711    -0.26000
N749        N  0.06714772  0.42263825  0.96152646    -0.46800
H750        H  0.05225075  0.60589393  0.53899380     0.06900
C751        C  0.20681727  0.59846006  0.97179378    -0.06900
Cl752      Cl  0.14104803  0.49848908  0.50503537    -0.49900
C753        C  0.19014096  0.35537653  0.95666143     0.42600
H754        H  0.15817514  0.61503943  0.57989967     0.06800
N755        N  0.17209373  0.59555917  0.94181072    -0.46600
C756        C  0.41384247  0.40301412  0.57939767     0.42500
N757        N  0.40716912  0.44194868  0.54070438     0.01400
C758        C  0.29724026  0.61036828  0.52242117    -0.06500
H759        H  0.27073142  0.39421613  0.51714140     0.06800
C760        C  0.33596272  0.38278221  0.94329773    -0.06900
Co761      Co  0.35335395  0.49859543  0.54951324     0.74200
N762        N  0.30395579  0.44351406  0.52925809    -0.26100
Co763      Co  0.30744097  0.49585925  0.99777459     0.74100
C764        C  0.31462864  0.35052484  0.95541952     0.42600
N765        N  0.39372522  0.43432078  0.95931536     0.01000
N766        N  0.31236516  0.43012794  0.97160344     0.01100
N767        N  0.32768095  0.60657083  0.55641939    -0.46900
H768        H  0.36846623  0.40860078  0.58970254     0.06800
N769        N  0.32268242  0.44095321  0.54814037     0.01400
N770        N  0.30957554  0.54718672  0.96589483     0.01100
C771        C  0.30341924  0.61658668  0.94142763     0.42700
N772        N  0.41390918  0.43684156  0.97712659    -0.25500
C773        C  0.38704088  0.58977551  0.57176698    -0.06400
N774        N  0.42674864  0.42200365  0.55685286    -0.46600
N775        N  0.29240825  0.58705947  0.96124040    -0.46800
C776        C  0.41569824  0.60567136  0.57159834     0.42500
N777        N  0.32482149  0.55970463  0.54484436     0.01300
N778        N  0.41322512  0.54847632  0.97310279    -0.25500
N779        N  0.38284080  0.43956328  0.55272327    -0.26000
N780        N  0.39167504  0.55072787  0.95667958     0.01000
H781        H  0.45586276  0.57116337  0.96613335     0.06900
H782        H  0.34550326  0.60277085  0.92043641     0.06900
N783        N  0.30738517  0.56052047  0.52446177    -0.26100
N784        N  0.33353493  0.43048871  0.95490550    -0.25700
N785        N  0.40750578  0.55466650  0.53737890     0.01400
C786        C  0.29879347  0.36927095  0.55274504     0.42700
C787        C  0.43531256  0.40716706  0.96762837    -0.06900
N788        N  0.33149283  0.54788082  0.95045829    -0.25700
H789        H  0.35259212  0.37016811  0.93033447     0.06900
N790        N  0.32081867  0.39654185  0.56231982    -0.46900
H791        H  0.45579411  0.40614894  0.97634521     0.06900
C792        C  0.42291581  0.59173564  0.93378287     0.42600
C793        C  0.38463276  0.41050829  0.57489777    -0.06400
Co794      Co  0.41131447  0.49571799  0.50726918     0.73800
N795        N  0.39977550  0.40331041  0.93896759    -0.46600
C796        C  0.31106544  0.64107554  0.54356123     0.42800
N797        N  0.42744691  0.58189240  0.54971725    -0.46600
Co798      Co  0.36248389  0.49113131  0.95514418     0.73900
C799        C  0.32970646  0.59044828  0.93436921    -0.06900
C800        C  0.28708587  0.40228716  0.53131450    -0.06500
N801        N  0.38432347  0.55590054  0.55142489    -0.26000
N802        N  0.30103155  0.38222540  0.97318045    -0.46800
H803        H  0.28364283  0.62470803  0.50701219     0.06900
C804        C  0.43440206  0.57261298  0.95993624    -0.06900
Cl805      Cl  0.35893281  0.49531126  0.50248494    -0.49900
C806        C  0.42577345  0.38499352  0.94158083     0.42600
H807        H  0.37253136  0.59344713  0.58821464     0.06800
N808        N  0.39635501  0.57765186  0.93454117    -0.46600
C809        C  0.19039594  0.13179585  0.55605346     0.42500
N810        N  0.21151129  0.05574164  0.55696013     0.01400
C811        C  0.20679856  0.92512961  0.67938743    -0.06500
H812        H  0.21405017  0.10290466  0.69343815     0.06800
C813        C  0.32144424  0.09218240  0.63210743    -0.06900
Co814      Co  0.19777203  0.99922178  0.60728114     0.74200
N815        N  0.21693450  0.06286912  0.65495373    -0.26100
Co816      Co  0.25109776  0.00831132  0.65545619     0.74100
C817        C  0.32212349  0.10710806  0.66021400     0.42600
N818        N  0.29166026  0.06171080  0.57018991     0.01000
N819        N  0.28359295  0.06545455  0.65133352     0.01100
N820        N  0.17919491  0.91822331  0.64350940    -0.46900
H821        H  0.16473569  0.11173632  0.59278429     0.06800
N822        N  0.19851064  0.05894453  0.63535893     0.01400
N823        N  0.28516756  0.95387710  0.65383321     0.01100
C824        C  0.32456329  0.91701708  0.66441548     0.42700
N825        N  0.27193537  0.05733224  0.55225816    -0.25500
C826        C  0.18186611  0.89383070  0.57952205    -0.06400
N827        N  0.21018236  0.10174349  0.54404458    -0.46600
N828        N  0.29995694  0.93515694  0.67447720    -0.46800
C829        C  0.19183554  0.86333305  0.55660221     0.42500
N830        N  0.20127677  0.94577410  0.63783192     0.01300
N831        N  0.27498682  0.94052357  0.55487478    -0.25500
N832        N  0.19423015  0.05485576  0.57729257    -0.26000
N833        N  0.29521819  0.94378562  0.57247131     0.01000
H834        H  0.26344315  0.88039136  0.52690141     0.06900
H835        H  0.34037877  0.92519539  0.62138465     0.06900
N836        N  0.21862736  0.95065504  0.65823206    -0.26100
N837        N  0.29824492  0.06470648  0.62888001    -0.25700
N838        N  0.21384182  0.93730988  0.55891446     0.01400
C839        C  0.17863005  0.11346439  0.66238311     0.42700
C840        C  0.27065768  0.10199240  0.53787850    -0.06900
N841        N  0.29984127  0.95169731  0.63138500    -0.25700
H842        H  0.33838472  0.09162837  0.61792213     0.06900
N843        N  0.17605610  0.08757526  0.63926496    -0.46900
H844        H  0.25528939  0.10886565  0.52283557     0.06900
C845        C  0.30326702  0.86958022  0.55219592     0.42600
C846        C  0.17931971  0.09981716  0.57755489    -0.06400
Co847      Co  0.24306830  0.99739772  0.55480805     0.73800
N848        N  0.30304518  0.10920866  0.56990258    -0.46600
C849        C  0.18002056  0.90345426  0.66920608     0.42800
N850        N  0.21212600  0.89250386  0.54515903    -0.46600
Co851      Co  0.29616901  0.00541538  0.60033541     0.73900
C852        C  0.32358036  0.92632924  0.63571189    -0.06900
C853        C  0.20570085  0.09588134  0.67361157    -0.06500
N854        N  0.19672920  0.93845239  0.57939641    -0.26000
N855        N  0.29790021  0.08889887  0.67100199    -0.46800
H856        H  0.21446342  0.92680387  0.69973688     0.06900
C857        C  0.27818853  0.89506312  0.54119653    -0.06900
Cl858      Cl  0.24711875  0.00245341  0.60495889    -0.49900
C859        C  0.29053621  0.13810905  0.55034932     0.42600
H860        H  0.16733383  0.88253301  0.59492954     0.06800
N861        N  0.31204279  0.90193407  0.57202046    -0.46600
C862        C  0.18254916  0.11332602  0.84431029     0.42500
N863        N  0.21944249  0.06561581  0.85237477     0.01400
C864        C  0.21704733  0.88667191  0.95898317    -0.06500
H865        H  0.23501987  0.10745185  0.98092965     0.06800
C866        C  0.31972119  0.08746702  0.93234696    -0.06900
Co867      Co  0.20309388  0.99954980  0.90028233     0.74200
N868        N  0.22281554  0.05152384  0.95048570    -0.26100
Co869      Co  0.25202080  0.99045801  0.94916211     0.74100
C870        C  0.30865024  0.11962210  0.95393700     0.42600
N871        N  0.30399200  0.05352238  0.87210042     0.01000
N872        N  0.28439912  0.04750874  0.94961834     0.01100
N873        N  0.18910796  0.89031261  0.92285556    -0.46900
H874        H  0.16335159  0.08957135  0.88412686     0.06800
N875        N  0.20342518  0.05325603  0.93198233     0.01400
N876        N  0.28004532  0.92735654  0.94518330     0.01100
C877        C  0.29417310  0.84560300  0.94224934     0.42700
N878        N  0.28668747  0.05991649  0.85163102    -0.25500
C879        C  0.17952045  0.92216691  0.86206178    -0.06400
N880        N  0.20667917  0.09432378  0.83334702    -0.46600
N881        N  0.27640683  0.87883626  0.95484334    -0.46800
C882        C  0.18068764  0.91527131  0.83339232     0.42500
N883        N  0.20289960  0.93521710  0.92617912     0.01300
N884        N  0.28406878  0.94935518  0.84605230    -0.25500
N885        N  0.20350136  0.06190150  0.87386748    -0.26000
N886        N  0.30015669  0.94144321  0.86725651     0.01000
H887        H  0.29096057  0.93088449  0.80395415     0.06900
H888        H  0.32384675  0.86761969  0.90792521     0.06900
N889        N  0.22030190  0.93348752  0.94644806    -0.26100
N890        N  0.30332071  0.04508662  0.93069019    -0.25700
N891        N  0.21818085  0.95377032  0.84664500     0.01400
C892        C  0.19788908  0.12643359  0.95367056     0.42700
C893        C  0.30003101  0.09015374  0.83312766    -0.06900
N894        N  0.29858030  0.92810004  0.92588363    -0.25700
H895        H  0.33567848  0.09768430  0.91822780     0.06900
N896        N  0.18856540  0.09749064  0.93287430    -0.46900
H897        H  0.29309174  0.09686276  0.81274267     0.06900
C898        C  0.32243893  0.90168124  0.83589057     0.42600
C899        C  0.18130300  0.09236356  0.87121228    -0.06400
Co900      Co  0.25196380  0.00768509  0.84837873     0.73800
N901        N  0.32779090  0.07777953  0.86877261    -0.46600
C902        C  0.19680254  0.85732790  0.94289706     0.42800
N903        N  0.20529439  0.93545349  0.82486766    -0.46600
Co904      Co  0.30154082  0.99181750  0.89938422     0.73900
C905        C  0.30938167  0.87924031  0.92332242    -0.06900
C906        C  0.22091862  0.09594758  0.96527550    -0.06500
N907        N  0.20225774  0.94894946  0.86810157    -0.26000
N908        N  0.28634029  0.09252123  0.96348226    -0.46800
H909        H  0.22923572  0.87296842  0.97576502     0.06900
C910        C  0.29692618  0.92614865  0.82476406    -0.06900
Cl911      Cl  0.25218779  0.99784672  0.89909585    -0.49900
C912        C  0.32737942  0.10284008  0.84512722     0.42600
H913        H  0.16163786  0.91910206  0.87500313     0.06800
N914        N  0.32254714  0.91375339  0.86192037    -0.46600
C915        C  0.05184699  0.38512707  0.68638643     0.42500
N916        N  0.03307415  0.38411353  0.72609759     0.01400
C917        C  0.04658794  0.14529237  0.79573197    -0.06500
H918        H  0.03512758  0.11307395  0.70619040     0.06800
C919        C  0.42784946  0.23153482  0.71257580    -0.06900
Co920      Co  0.05126626  0.28658999  0.75561716     0.74200
N921        N  0.03226504  0.19004126  0.72516371    -0.26100
Co922      Co  0.50128155  0.18806437  0.75246163     0.74100
C923        C  0.42868560  0.17799909  0.70239504     0.42600
N924        N  0.45449694  0.35215029  0.72847783     0.01000
N925        N  0.46653035  0.19428334  0.72505132     0.01100
N926        N  0.07424325  0.21652641  0.79632363    -0.46900
H927        H  0.08001162  0.31513428  0.69696197     0.06800
N928        N  0.05005998  0.22973811  0.72590702     0.01400
N929        N  0.46997909  0.18886190  0.78266613     0.01100
C930        C  0.43463471  0.16725777  0.80686239     0.42700
N931        N  0.47340171  0.38940039  0.72861356    -0.25500
C932        C  0.06489387  0.33965155  0.81052356    -0.06400
N933        N  0.03233075  0.40823832  0.70226780    -0.46600
N934        N  0.45838711  0.14806899  0.79549164    -0.46800
C935        C  0.05346897  0.38311542  0.82634388     0.42500
N936        N  0.05132361  0.22625932  0.78296296     0.01300
N937        N  0.47627762  0.38349685  0.78900351    -0.25500
N938        N  0.05137577  0.34536354  0.72644231    -0.26000
N939        N  0.45733574  0.34630394  0.78845742     0.01000
H940        H  0.48973856  0.43577483  0.82104099     0.06900
H941        H  0.41323186  0.24569834  0.79873844     0.06900
N942        N  0.03414251  0.18559375  0.78206826    -0.26100
N943        N  0.45092173  0.23733353  0.72682291    -0.25700
N944        N  0.03443469  0.38239116  0.78702074     0.01400
C945        C  0.07007695  0.17442308  0.69932236     0.42700
C946        C  0.47116749  0.41717884  0.70565453    -0.06900
N947        N  0.45379282  0.23127510  0.78378350    -0.25700
H948        H  0.41033621  0.25841374  0.71336511     0.06900
N949        N  0.07212658  0.22166683  0.71108135    -0.46900
H950        H  0.48464928  0.44852813  0.69919066     0.06900
C951        C  0.45483071  0.37639978  0.82910079     0.42600
C952        C  0.06486291  0.34441821  0.70292066    -0.06400
Co953      Co  0.50496378  0.38749863  0.75710812     0.73800
N954        N  0.44006951  0.35099649  0.70589658    -0.46600
C955        C  0.07316496  0.16713852  0.80553787     0.42800
N956        N  0.03468499  0.40769256  0.81042404    -0.46600
Co957      Co  0.45417539  0.29266432  0.75689343     0.73900
C958        C  0.43171068  0.22142650  0.79865189    -0.06900
C959        C  0.04329700  0.15246922  0.70877331    -0.06500
N960        N  0.05175577  0.34196442  0.78670665    -0.26000
N961        N  0.45326363  0.15653593  0.71124567    -0.46800
H962        H  0.03946057  0.10480159  0.79635309     0.06900
C963        C  0.47578994  0.40578553  0.81376591    -0.06900
Cl964      Cl  0.50325702  0.28817757  0.75494035    -0.49900
C965        C  0.44959879  0.39048172  0.69047699     0.42600
H966        H  0.07917515  0.30910681  0.81688132     0.06800
N967        N  0.44460009  0.34053237  0.81177744    -0.46600
C968        C  0.07057862  0.84008903  0.70193970     0.42500
N969        N  0.03436985  0.82002794  0.72502154     0.01400
C970        C  0.02836153  0.59687485  0.80542835    -0.06500
H971        H  0.01291279  0.57679493  0.68759440     0.06800
C972        C  0.43051223  0.67547069  0.70436040    -0.06900
Co973      Co  0.04828567  0.71641193  0.75210411     0.74200
N974        N  0.02649609  0.62719152  0.71973713    -0.26100
Co975      Co  0.49731035  0.62499275  0.75111039     0.74100
C976        C  0.44077108  0.63621207  0.68508856     0.42600
N977        N  0.45082196  0.78897505  0.72901345     0.01000
N978        N  0.46562633  0.63455607  0.72181217     0.01100
N979        N  0.05990999  0.66127336  0.80452396    -0.46900
H980        H  0.08988550  0.75885296  0.70810994     0.06800
N981        N  0.04624755  0.66255232  0.72119725     0.01400
N982        N  0.46798303  0.62638479  0.78237382     0.01100
C983        C  0.45102257  0.62099758  0.82230492     0.42700
N984        N  0.46928015  0.82752481  0.72894122    -0.25500
C985        C  0.07568814  0.77984988  0.79247146    -0.06400
N986        N  0.04698860  0.86047264  0.71292381    -0.46600
N987        N  0.46846306  0.59748073  0.80468462    -0.46800
C988        C  0.07777506  0.83610488  0.79604994     0.42500
N989        N  0.04656430  0.65825287  0.78134348     0.01300
N990        N  0.47179297  0.82305904  0.78568580    -0.25500
N991        N  0.04989490  0.77671079  0.72422515    -0.26000
N992        N  0.45426583  0.78300833  0.78636567     0.01000
H993        H  0.46797283  0.90290898  0.80104657     0.06900
H994        H  0.42579422  0.69709878  0.81708025     0.06900
N995        N  0.02729534  0.62173468  0.78123706    -0.26100
N996        N  0.44769715  0.67321765  0.72537406    -0.25700
N997        N  0.03675037  0.81726726  0.78120766     0.01400
C998        C  0.04919693  0.63468133  0.68036884     0.42700
C999        C  0.45800757  0.86852302  0.71502456    -0.06900
N1000       N  0.45130182  0.66758155  0.78460348    -0.25700
H1001       H  0.41405418  0.70398642  0.70283654     0.06900
N1002       N  0.06005575  0.66808576  0.69845975    -0.46900
H1003       H  0.46642003  0.90806265  0.71435056     0.06900
C1004       C  0.43370491  0.84179437  0.81044878     0.42600
C1005       C  0.07214193  0.78513600  0.70929438    -0.06400
Co1006     Co  0.00268784  0.82261794  0.75432495     0.73800
N1007       N  0.42786635  0.80117961  0.71611244    -0.46600
C1008       C  0.04989201  0.62406983  0.82122280     0.42800
N1009       N  0.05270330  0.85731808  0.78911651    -0.46600
Co1010     Co  0.45096255  0.72767649  0.75639995     0.73900
C1011       C  0.43920492  0.66681772  0.80885183    -0.06900
C1012       C  0.02720276  0.60597095  0.69485900    -0.06500
N1013       N  0.05101640  0.77248048  0.78151022    -0.26000
N1014       N  0.46241313  0.61171049  0.69786099    -0.46800
H1015       H  0.01431979  0.56676271  0.81233793     0.06900
C1016       C  0.46038394  0.86277257  0.80039601    -0.06900
Cl1017     Cl  0.50016632  0.72364462  0.75408380    -0.49900
C1018       C  0.43031181  0.85022274  0.70629315     0.42600
H1019       H  0.09223881  0.75140324  0.79081409     0.06800
N1020       N  0.43218193  0.79261944  0.80088551    -0.46600
C1021       C  0.39156740  0.83636941  0.83614691    -0.05800
C1022       C  0.40686515  0.86661962  0.81798243     0.00200
C1023       C  0.39257700  0.90449023  0.80186304    -0.08400
C1024       C  0.36379672  0.91330583  0.80615709    -0.05800
C1025       C  0.34871758  0.88178505  0.82419689     0.00100
C1026       C  0.36281513  0.84070408  0.83804312    -0.08300
C1027       C  0.34837679  0.79938654  0.85484670     0.62000
H1028       H  0.40196892  0.80501694  0.84729610     0.12700
H1029       H  0.35313578  0.94549554  0.79603287     0.12800
C1030       C  0.40754412  0.93464484  0.78014935     0.62300
F1031       F  0.35592360  0.74962539  0.84568297    -0.22900
F1032       F  0.31985883  0.80339327  0.85332263    -0.20200
F1033       F  0.35666876  0.80441296  0.88130192    -0.19900
F1034       F  0.41940507  0.89966657  0.76216332    -0.19900
F1035       F  0.42799880  0.96501544  0.79172434    -0.20300
F1036       F  0.38978672  0.96750547  0.76595470    -0.22900
C1037       C  0.10465228  0.90980503  0.81479135    -0.05800
C1038       C  0.10455849  0.86502696  0.79846620     0.00200
C1039       C  0.13053720  0.84581753  0.78815378    -0.08400
C1040       C  0.15533092  0.86646057  0.79851805    -0.05800
C1041       C  0.15525808  0.90782235  0.81701179     0.00100
C1042       C  0.12946086  0.93270274  0.82358226    -0.08300
C1043       C  0.12651765  0.98244692  0.84033680     0.62000
H1044       H  0.08505698  0.92588227  0.82180677     0.12700
H1045       H  0.17496685  0.84837877  0.79302388     0.12800
C1046       C  0.13370482  0.80333401  0.76680261     0.62300
F1047       F  0.10827750  0.01704042  0.82785353    -0.22900
F1048       F  0.15126735  0.00842711  0.84343479    -0.20200
F1049       F  0.11599841  0.96966687  0.86533688    -0.19900
F1050       F  0.11032546  0.79925535  0.75119627    -0.19900
F1051       F  0.13972009  0.75518840  0.77878817    -0.20300
F1052       F  0.15526301  0.81534026  0.74965423    -0.22900
C1053       C  0.36346823  0.10399868  0.80854819    -0.05800
C1054       C  0.35407963  0.12241996  0.83368780     0.00200
C1055       C  0.37309608  0.15001481  0.85040775    -0.08400
C1056       C  0.40074549  0.15543066  0.84228104    -0.05800
C1057       C  0.40999473  0.13874295  0.81707037     0.00100
C1058       C  0.39102659  0.11312325  0.79969123    -0.08300
C1059       C  0.39999340  0.09701847  0.77173260     0.62000
H1060       H  0.34926559  0.08192762  0.79606620     0.12700
H1061       H  0.41492214  0.17723196  0.85500915     0.12800
C1062       C  0.36526654  0.17546542  0.87697213     0.62300
F1063       F  0.37880872  0.07315584  0.75757018    -0.22900
F1064       F  0.42205702  0.06211539  0.77341414    -0.20200
F1065       F  0.40832710  0.14111556  0.75762597    -0.19900
F1066       F  0.37533692  0.14463310  0.89777561    -0.19900
F1067       F  0.33704065  0.18184884  0.87973133    -0.20300
F1068       F  0.37690086  0.22522228  0.87888732    -0.22900
C1069       C  0.11821141  0.12053646  0.79837429    -0.05800
C1070       C  0.09898934  0.14340459  0.81634742     0.00200
C1071       C  0.10840054  0.16060703  0.84167849    -0.08400
C1072       C  0.13654350  0.15498130  0.84815460    -0.05800
C1073       C  0.15577120  0.12949296  0.83107286     0.00100
C1074       C  0.14645377  0.11224779  0.80545672    -0.08300
C1075       C  0.16600552  0.08600095  0.78563253     0.62000
H1076       H  0.11108263  0.11065156  0.77842574     0.12700
H1077       H  0.14367205  0.16938263  0.86741986     0.12800
C1078       C  0.08847918  0.18511476  0.86188737     0.62300
F1079       F  0.15306266  0.07513428  0.76144961    -0.22900
F1080       F  0.17584795  0.03872845  0.79604233    -0.20200
F1081       F  0.18801267  0.11926348  0.78049257    -0.19900
F1082       F  0.06681513  0.15069341  0.86643028    -0.19900
F1083       F  0.07800879  0.23236883  0.85211669    -0.20300
F1084       F  0.10115901  0.19532388  0.88626908    -0.22900
C1085       C  0.38054459  0.87053565  0.71371577    -0.05800
C1086       C  0.40480155  0.88023333  0.69864067     0.00200
C1087       C  0.40260969  0.90953083  0.67463000    -0.08400
C1088       C  0.37612900  0.92606211  0.66600287    -0.05800
C1089       C  0.35151047  0.91061712  0.67927788     0.00100
C1090       C  0.35390185  0.88508554  0.70444608    -0.08300
C1091       C  0.32854609  0.87183829  0.72103049     0.62000
H1092       H  0.38249321  0.84863962  0.73233856     0.12700
H1093       H  0.37464297  0.94925557  0.64783695     0.12800
C1094       C  0.42767070  0.91915219  0.65694870     0.62300
F1095       F  0.33543271  0.84545011  0.74452318    -0.22900
F1096       F  0.31097969  0.83985902  0.70638190    -0.20200
F1097       F  0.31483144  0.91811745  0.72794503    -0.19900
F1098       F  0.42094123  0.94784985  0.63411713    -0.19900
F1099       F  0.43881072  0.87110693  0.64888736    -0.20300
F1100       F  0.44739310  0.94715849  0.67101280    -0.22900
C1101       C  0.13514343  0.86068419  0.66282660    -0.05800
C1102       C  0.15285288  0.88665858  0.68111326     0.00200
C1103       C  0.14157156  0.90385952  0.70603136    -0.08400
C1104       C  0.11322873  0.89303218  0.71170604    -0.05800
C1105       C  0.09591919  0.86761268  0.69288912     0.00100
C1106       C  0.10693161  0.85289898  0.66780592    -0.08300
C1107       C  0.08856093  0.82870962  0.64625516     0.62000
H1108       H  0.14350742  0.84739176  0.64378045     0.12700
H1109       H  0.10469135  0.90231942  0.73127092     0.12800
C1110       C  0.15916239  0.93264389  0.72652529     0.62300
F1111       F  0.10191983  0.82544889  0.62177895    -0.22900
F1112       F  0.06513590  0.85983788  0.64283788    -0.20200
F1113       F  0.08063032  0.77823896  0.65358111    -0.19900
F1114       F  0.16918853  0.97897737  0.71559763    -0.19900
F1115       F  0.18119224  0.90086236  0.73419373    -0.20300
F1116       F  0.14421234  0.94560875  0.74933519    -0.22900
C1117       C  0.37407240  0.09876082  0.66342799    -0.05800
C1118       C  0.34901591  0.11800636  0.67482442     0.00200
C1119       C  0.35090511  0.15034024  0.69792064    -0.08400
C1120       C  0.37739878  0.16542472  0.70727280    -0.05800
C1121       C  0.40238504  0.14977821  0.69450383     0.00100
C1122       C  0.40056392  0.11476762  0.67247741    -0.08300
C1123       C  0.42636878  0.09649416  0.65773260     0.62000
H1124       H  0.37294941  0.07162024  0.64671041     0.12700
H1125       H  0.37861921  0.19157898  0.72440085     0.12800
C1126       C  0.32514295  0.17063285  0.71209420     0.62300
F1127       F  0.42008470  0.06510620  0.63578831    -0.22900
F1128       F  0.44296502  0.06734421  0.67496400    -0.20200
F1129       F  0.44091474  0.13991541  0.64856294    -0.19900
F1130       F  0.30991461  0.12832856  0.72148846    -0.19900
F1131       F  0.30918099  0.20009995  0.69441172    -0.20300
F1132       F  0.33152988  0.20247486  0.73384713    -0.22900
C1133       C  0.13741677  0.09615592  0.69062067    -0.05800
C1134       C  0.15271709  0.13241554  0.67522527     0.00200
C1135       C  0.13920702  0.17838230  0.66533782    -0.08400
C1136       C  0.11126707  0.18722129  0.67186053    -0.05800
C1137       C  0.09593947  0.15168926  0.68765158     0.00100
C1138       C  0.10914848  0.10485863  0.69702676    -0.08300
C1139       C  0.09359708  0.06408841  0.71334369     0.62000
H1140       H  0.14749972  0.05965372  0.69651278     0.12700
H1141       H  0.10114244  0.22327535  0.66511077     0.12800
C1142       C  0.15413131  0.21777270  0.64749639     0.62300
F1143       F  0.11045157  0.02204749  0.72074798    -0.22900
F1144       F  0.07203304  0.04427957  0.69818739    -0.20200
F1145       F  0.08324071  0.08686984  0.73650857    -0.19900
F1146       F  0.15893704  0.19539266  0.62262487    -0.19900
F1147       F  0.17909029  0.23154668  0.65909828    -0.20300
F1148       F  0.13879202  0.26372021  0.64365428    -0.22900
C1149       C  0.31928669  0.73190313  0.52437041    -0.05800
C1150       C  0.31314001  0.69990823  0.54676384     0.00200
C1151       C  0.31068957  0.72462770  0.57224509    -0.08400
C1152       C  0.30745697  0.78029548  0.57336538    -0.05800
C1153       C  0.31067750  0.81206524  0.55044952     0.00100
C1154       C  0.32038107  0.78787204  0.52654696    -0.08300
C1155       C  0.33532601  0.82019605  0.50530925     0.62000
H1156       H  0.32448966  0.71271693  0.50556482     0.12700
H1157       H  0.30252862  0.79946477  0.59223853     0.12800
C1158       C  0.31209814  0.69275166  0.59815160     0.62300
F1159       F  0.34061741  0.79166023  0.98330171    -0.22900
F1160       F  0.35987925  0.83835335  0.51610208    -0.20200
F1161       F  0.31859571  0.86456159  0.99803466    -0.19900
F1162       F  0.33835122  0.67132024  0.60082676    -0.19900
F1163       F  0.29305512  0.65211441  0.59799946    -0.20300
F1164       F  0.30694526  0.72403309  0.62044238    -0.22900
C1165       C  0.27832609  0.28631872  0.53517543    -0.05800
C1166       C  0.29537414  0.31030774  0.55444928     0.00200
C1167       C  0.30928052  0.27717433  0.57317854    -0.08400
C1168       C  0.30687616  0.22185462  0.57061634    -0.05800
C1169       C  0.29095243  0.19769466  0.55031677    -0.04100
C1170       C  0.27617814  0.23125842  0.53212337    -0.08300
C1171       C  0.25814711  0.21177457  0.50918366     0.62000
H1172       H  0.26639644  0.31105237  0.52189571     0.12700
H1173       H  0.31810685  0.19689311  0.58458830     0.12800
C1174       C  0.32717767  0.29895853  0.59555416     0.62300
F1175       F  0.25122476  0.25185007  0.49139110    -0.22900
F1176       F  0.23384520  0.19157592  0.51900836    -0.20200
F1177       F  0.27131650  0.17616618  0.99503003    -0.19900
F1178       F  0.31356608  0.33984755  0.60862748    -0.19900
F1179       F  0.35169602  0.31677854  0.58475937    -0.20300
F1180       F  0.33359509  0.26076522  0.61459375    -0.22900
C1181       C  0.30412078  0.76024272  0.91890473    -0.05800
C1182       C  0.29222008  0.78587893  0.94140188     0.00200
C1183       C  0.27889290  0.75312612  0.96100882    -0.08400
C1184       C  0.28043192  0.69787466  0.95803286    -0.05800
C1185       C  0.29598709  0.67342054  0.93776400     0.00100
C1186       C  0.30564278  0.70477783  0.91641074    -0.08300
C1187       C  0.31653562  0.68149408  0.89036311     0.62000
H1188       H  0.31193631  0.78354114  0.90256430     0.12700
H1189       H  0.26981106  0.67320634  0.97229422     0.12800
C1190       C  0.26243422  0.77243052  0.98512876     0.62300
F1191       F  0.30592753  0.70943925  0.86880161    -0.22900
F1192       F  0.30861734  0.62946834  0.88676152    -0.20200
F1193       F  0.34511170  0.68457501  0.89007578    -0.19900
F1194       F  0.23513127  0.77825057  0.97820136    -0.19900
F1195       F  0.27352392  0.81828428  0.49496208    -0.20300
F1196       F  0.26278030  0.73629980  0.50606069    -0.22900
C1197       C  0.30462863  0.20807408  0.93167775    -0.05800
C1198       C  0.31166520  0.17869992  0.95472208     0.00200
C1199       C  0.32333710  0.20593540  0.97681791    -0.08400
C1200       C  0.32184793  0.26203839  0.97745427    -0.05800
C1201       C  0.31386872  0.29135478  0.95461797     0.00100
C1202       C  0.30815597  0.26355619  0.93053831    -0.08300
C1203       C  0.30806228  0.29151477  0.90344948     0.62000
H1204       H  0.29768604  0.18683694  0.91406367     0.12700
H1205       H  0.32900244  0.28339988  0.99496947     0.12800
C1206       C  0.34009369  0.17614990  0.99772767     0.62300
F1207       F  0.29818429  0.25930385  0.88314957    -0.22900
F1208       F  0.33483969  0.30518530  0.89707732    -0.20200
F1209       F  0.29194064  0.33697322  0.90407360    -0.19900
F1210       F  0.36421053  0.15767721  0.98594869    -0.19900
F1211       F  0.32418894  0.13042063  0.50627224    -0.20300
F1212       F  0.34688000  0.20369965  0.51872048    -0.22900
C1213       C  0.43685710  0.56418663  0.85946175    -0.05800
C1214       C  0.45018782  0.61015082  0.85157119     0.00200
C1215       C  0.45889546  0.64680751  0.87151497    -0.08400
C1216       C  0.45131980  0.63828255  0.89868994    -0.05800
C1217       C  0.43625705  0.59349950  0.90651056     0.00100
C1218       C  0.42955568  0.55522565  0.88632881    -0.08300
C1219       C  0.41336563  0.50573219  0.89237869     0.62000
H1220       H  0.43037558  0.53671192  0.84398857     0.12700
H1221       H  0.45631878  0.66779292  0.91369358     0.12800
C1222       C  0.47541388  0.69595812  0.86492630     0.62300
F1223       F  0.41728371  0.46746227  0.87294012    -0.22900
F1224       F  0.38532914  0.51694208  0.89364066    -0.20200
F1225       F  0.42237612  0.48550541  0.91638932    -0.19900
F1226       F  0.45799167  0.73963155  0.86528031    -0.19900
F1227       F  0.48817697  0.69278493  0.84010955    -0.20300
F1228       F  0.49599474  0.70279204  0.88393435    -0.22900
C1229       C  0.41914680  0.66386223  0.61095384    -0.05800
C1230       C  0.42896273  0.61831301  0.59801513     0.00200
C1231       C  0.44326214  0.58000739  0.61363587    -0.08400
C1232       C  0.44381450  0.58542306  0.64199396    -0.05800
C1233       C  0.43481162  0.63184850  0.65514428     0.00100
C1234       C  0.42290986  0.67299528  0.63873842    -0.08300
C1235       C  0.41370870  0.72664336  0.64940583     0.62000
H1236       H  0.40755106  0.69208712  0.59891156     0.12700
H1237       H  0.45295365  0.55415988  0.65406918     0.12800
C1238       C  0.45965046  0.53591991  0.60035483     0.62300
F1239       F  0.40722808  0.76179473  0.62893548    -0.22900
F1240       F  0.43485447  0.74932583  0.66403209    -0.20200
F1241       F  0.39011751  0.72093279  0.66482358    -0.19900
F1242       F  0.48026674  0.55776616  0.58469017    -0.19900
F1243       F  0.44280501  0.50627472  0.58422314    -0.20300
F1244       F  0.47191966  0.50230383  0.61892468    -0.22900
C1245       C  0.46923345  0.39451447  0.87722580    -0.05800
C1246       C  0.44971357  0.37401462  0.85891939     0.00200
C1247       C  0.42535201  0.35081617  0.86953031    -0.08400
C1248       C  0.42264569  0.34478639  0.89742734    -0.05800
C1249       C  0.44004674  0.37069968  0.91572642     0.00100
C1250       C  0.46427467  0.39533337  0.90547100    -0.08300
C1251       C  0.48448218  0.42332813  0.92376232     0.62000
H1252       H  0.48783581  0.41209582  0.86916428     0.12700
H1253       H  0.40434826  0.32546079  0.90524717     0.12800
C1254       C  0.40043369  0.33809351  0.85214166     0.62300
F1255       F  0.47201486  0.46645840  0.93594000    -0.22900
F1256       F  0.50701156  0.44156327  0.90958203    -0.20200
F1257       F  0.49399923  0.38861245  0.94319251    -0.19900
F1258       F  0.40454775  0.29013235  0.83964288    -0.19900
F1259       F  0.39606465  0.37748191  0.83322641    -0.20300
F1260       F  0.37646804  0.33476906  0.86715903    -0.22900
C1261       C  0.42321103  0.43250476  0.65485684    -0.05800
C1262       C  0.44332935  0.39572594  0.66165186     0.00200
C1263       C  0.45527718  0.36321807  0.64151714    -0.08400
C1264       C  0.44659475  0.36967406  0.61452199    -0.05800
C1265       C  0.42540424  0.40558710  0.60750503     0.00100
C1266       C  0.41376295  0.43847793  0.62846844    -0.08300
C1267       C  0.39052714  0.47886780  0.62517551     0.62000
H1268       H  0.41402122  0.45577292  0.67090512     0.12700
H1269       H  0.45506567  0.34432793  0.59898226     0.12800
C1270       C  0.47589100  0.32009033  0.64889946     0.62300
F1271       F  0.39325378  0.52035821  0.64314240    -0.22900
F1272       F  0.36530134  0.45517051  0.63006613    -0.20200
F1273       F  0.39066635  0.50073265  0.60010982    -0.19900
F1274       F  0.46285964  0.28195901  0.66420568    -0.19900
F1275       F  0.49732781  0.34129454  0.66362548    -0.20300
F1276       F  0.98710636  0.28879756  0.62571071    -0.22900
C1277       C  0.17550179  0.71698278  0.96235242    -0.05800
C1278       C  0.19264511  0.68576095  0.94588073     0.00200
C1279       C  0.20879215  0.71088138  0.92593012    -0.08400
C1280       C  0.20938848  0.76706648  0.92482236    -0.05800
C1281       C  0.19317746  0.79840566  0.94229035     0.00100
C1282       C  0.17504380  0.77284912  0.96029818    -0.08300
C1283       C  0.15550708  0.80534992  0.97730947     0.62000
H1284       H  0.16256497  0.69723688  0.97698945     0.12700
H1285       H  0.22270213  0.78685956  0.91054286     0.12800
C1286       C  0.22439121  0.67782772  0.90546388     0.62300
F1287       F  0.16862129  0.83827149  0.49449133    -0.22900
F1288       F  0.13757439  0.83666786  0.46071168    -0.20200
F1289       F  0.13783065  0.77366637  0.99197251    -0.19900
F1290       F  0.20559207  0.65006913  0.89004299    -0.19900
F1291       F  0.24165120  0.64200104  0.91828033    -0.20300
F1292       F  0.24026176  0.70880664  0.88856644    -0.22900
C1293       C  0.21665145  0.21552661  0.94478617    -0.05800
C1294       C  0.19467220  0.18485781  0.95422783     0.00200
C1295       C  0.16939470  0.21012061  0.96104864    -0.08400
C1296       C  0.16817342  0.26613605  0.96141360    -0.05800
C1297       C  0.19108167  0.29680308  0.95382707     0.00100
C1298       C  0.21455321  0.27109338  0.94322939    -0.08300
C1299       C  0.23636205  0.30202732  0.92857599     0.62000
H1300       H  0.23527889  0.19552548  0.93791554     0.12700
H1301       H  0.14934037  0.28627272  0.96743904     0.12800
C1302       C  0.14402153  0.17761856  0.96762224     0.62300
F1303       F  0.25193829  0.26850399  0.91273049    -0.22900
F1304       F  0.25312507  0.32739025  0.94690574    -0.20200
F1305       F  0.22428728  0.33925342  0.91174917    -0.19900
F1306       F  0.14943436  0.14559408  0.98957437    -0.19900
F1307       F  0.13730860  0.14613314  0.94589724    -0.20300
F1308       F  0.12127453  0.20921130  0.97332460    -0.22900
C1309       C  0.16843251  0.72079310  0.54596649    -0.05800
C1310       C  0.19315210  0.69309894  0.55169686     0.00200
C1311       C  0.21581061  0.72154932  0.56170068    -0.08400
C1312       C  0.21538402  0.77711182  0.56058793    -0.05800
C1313       C  0.19095108  0.80489526  0.55477992     0.00100
C1314       C  0.16637481  0.77620526  0.54977457    -0.08300
C1315       C  0.13808731  0.80269295  0.55144316     0.62000
H1316       H  0.15028060  0.69826311  0.54050195     0.12700
H1317       H  0.23360357  0.79929819  0.56629563     0.12800
C1318       C  0.23890261  0.69335357  0.57612951     0.62300
F1319       F  0.11710176  0.76881575  0.54377565    -0.22900
F1320       F  0.13676789  0.84736035  0.53545012    -0.20200
F1321       F  0.13324974  0.81749000  0.57769426    -0.19900
F1322       F  0.25454968  0.66557915  0.55772067    -0.19900
F1323       F  0.22825382  0.65851228  0.59488935    -0.20300
F1324       F  0.25521205  0.72897430  0.58982356    -0.22900
C1325       C  0.21106976  0.27489428  0.57084715    -0.05800
C1326       C  0.19144020  0.30279486  0.55557471     0.00200
C1327       C  0.17048175  0.27435697  0.54181012    -0.08400
C1328       C  0.17133256  0.21856726  0.54210061    -0.05800
C1329       C  0.19111989  0.19058798  0.55704622     0.00100
C1330       C  0.21050592  0.21912793  0.57291741    -0.08300
C1331       C  0.22875102  0.19206833  0.59380749     0.62000
H1332       H  0.22600987  0.29744399  0.58226028     0.12700
H1333       H  0.15589231  0.19616538  0.53134817     0.12800
C1334       C  0.14672281  0.30248587  0.52762155     0.62300
F1335       F  0.21263675  0.17591916  0.61511811    -0.22900
F1336       F  0.24885939  0.22578200  0.60360836    -0.20200
F1337       F  0.24195091  0.14835680  0.58331363    -0.19900
F1338       F  0.15680081  0.33822214  0.50912038    -0.19900
F1339       F  0.13061935  0.32913106  0.54609287    -0.20300
F1340       F  0.12965095  0.26739004  0.51439320    -0.22900
C1341       C  0.03629469  0.60147634  0.86934256    -0.05800
C1342       C  0.05573296  0.62322419  0.85114549     0.00200
C1343       C  0.08068522  0.64403200  0.86204996    -0.08400
C1344       C  0.08470105  0.64355620  0.89000484    -0.05800
C1345       C  0.06716833  0.61653037  0.90775001     0.00100
C1346       C  0.04191685  0.59654385  0.89741688    -0.08300
C1347       C  0.02135016  0.56967542  0.91575643     0.62000
H1348       H  0.01706468  0.58646422  0.86131040     0.12700
H1349       H  0.10344468  0.66052488  0.89819019     0.12800
C1350       C  0.10432714  0.66384918  0.84466166     0.62300
F1351       F  0.99804520  0.55344567  0.90193574    -0.22900
F1352       F  0.01314567  0.60463994  0.93563241    -0.20200
F1353       F  0.03334842  0.52561213  0.92753022    -0.19900
F1354       F  0.09748535  0.71291878  0.83449402    -0.19900
F1355       F  0.10964750  0.62864375  0.82397207    -0.20300
F1356       F  0.12870639  0.66922413  0.85904735    -0.22900
C1357       C  0.08395503  0.64966070  0.64488129    -0.05800
C1358       C  0.05638229  0.63867312  0.65111605     0.00200
C1359       C  0.03698370  0.63932412  0.62961026    -0.08400
C1360       C  0.04653932  0.63652050  0.60275632    -0.05800
C1361       C  0.07467965  0.64130714  0.59684731     0.00100
C1362       C  0.09282095  0.65549668  0.61824434    -0.08300
C1363       C  0.12153848  0.67755772  0.61418559     0.62000
H1364       H  0.09871938  0.65547128  0.66102842     0.12700
H1365       H  0.03223250  0.62826061  0.58655794     0.12800
C1366       C  0.00653824  0.64154079  0.63475388     0.62300
F1367       F  0.12450413  0.72314219  0.62926394    -0.22900
F1368       F  0.12629075  0.69082867  0.58770384    -0.20200
F1369       F  0.14102266  0.64100368  0.62285535    -0.19900
F1370       F  0.49927234  0.67663222  0.65575510    -0.19900
F1371       F  0.49876552  0.59142143  0.64179673    -0.20300
F1372       F  0.49127641  0.65793431  0.61257978    -0.22900
C1373       C  0.06690548  0.44000290  0.89608951    -0.05800
C1374       C  0.06306880  0.39549522  0.91271845     0.00200
C1375       C  0.05446460  0.34744445  0.90091616    -0.08400
C1376       C  0.04967170  0.34562007  0.87285468    -0.05800
C1377       C  0.05512856  0.38939950  0.85613749     0.00100
C1378       C  0.06413207  0.43709725  0.86795310    -0.08300
C1379       C  0.07306645  0.48314521  0.85062138     0.62000
H1380       H  0.07477688  0.47585465  0.90517694     0.12700
H1381       H  0.04292697  0.30916418  0.86357953     0.12800
C1382       C  0.05226446  0.29776886  0.91786364     0.62300
F1383       F  0.08449713  0.52332459  0.86575844    -0.22900
F1384       F  0.05043034  0.50283242  0.83685263    -0.20200
F1385       F  0.09289506  0.46647769  0.83239970    -0.19900
F1386       F  0.53160927  0.30561788  0.93552831    -0.19900
F1387       F  0.07808809  0.28440947  0.92796321    -0.20300
F1388       F  0.54106291  0.25464605  0.89978980    -0.22900
C1389       C  0.06159667  0.34161719  0.64203221    -0.05800
C1390       C  0.05321462  0.38755619  0.65613272     0.00200
C1391       C  0.04809733  0.43438239  0.64110595    -0.08400
C1392       C  0.05276853  0.43432290  0.61304491    -0.05800
C1393       C  0.06353889  0.38995673  0.59967343     0.00100
C1394       C  0.06750428  0.34243252  0.61424895    -0.08300
C1395       C  0.07927471  0.29354562  0.60058798     0.62000
H1396       H  0.06471911  0.30517976  0.65307525     0.12700
H1397       H  0.05024496  0.47049952  0.60155761     0.12800
C1398       C  0.03936511  0.48534781  0.65454795     0.62300
F1399       F  0.10627842  0.30285693  0.59285468    -0.22900
F1400       F  0.06361794  0.28169552  0.57813608    -0.20200
F1401       F  0.07924934  0.24983093  0.61738167    -0.19900
F1402       F  0.05667625  0.49647373  0.67592298    -0.19900
F1403       F  0.51687206  0.49003070  0.66638119    -0.20300
F1404       F  0.54379959  0.53314096  0.63728669    -0.22900
C1405       C  0.68969711  0.35861831  0.05532145     0.42500
N1406       N  0.68894860  0.43462176  0.03516743     0.01400
C1407       C  0.57153359  0.59674781  0.04583373    -0.06500
H1408       H  0.54406187  0.42194566  0.04018008     0.06800
C1409       C  0.60546782  0.40528616  0.43845202    -0.06900
Co1410     Co  0.63985030  0.49798304  0.05247969     0.74200
N1411       N  0.58646819  0.44764637  0.03595491    -0.26100
Co1412     Co  0.58725098  0.50253274  0.00348943     0.74100
C1413       C  0.57597720  0.39593923  0.43861285     0.42600
N1414       N  0.67018638  0.43045071  0.46019965     0.01000
N1415       N  0.58745731  0.44456380  0.47309025     0.01100
N1416       N  0.60831210  0.58900400  0.07294500    -0.46900
H1417       H  0.65296877  0.38162334  0.08192737     0.06800
N1418       N  0.60773440  0.44407156  0.05265633     0.01400
N1419       N  0.59051434  0.55707690  0.47065331     0.01100
C1420       C  0.58131140  0.59891716  0.43340647     0.42700
N1421       N  0.69032805  0.43081367  0.47796635    -0.25500
C1422       C  0.67184983  0.59970481  0.06506087    -0.06400
N1423       N  0.70151821  0.38763790  0.03557589    -0.46600
N1424       N  0.57040174  0.58343472  0.45755677    -0.46800
C1425       C  0.69309723  0.63085562  0.05228394     0.42500
N1426       N  0.61076374  0.55787720  0.05193220     0.01300
N1427       N  0.69220969  0.55043644  0.47570934    -0.25500
N1428       N  0.66881229  0.43723319  0.05292850    -0.26000
N1429       N  0.67270735  0.54978413  0.45724496     0.01000
H1430       H  0.72211952  0.61045421  0.48653945     0.06900
H1431       H  0.62239310  0.57325318  0.41509901     0.06900
N1432       N  0.58963596  0.56097782  0.03503369    -0.26100
N1433       N  0.61023011  0.43793390  0.45881402    -0.25700
N1434       N  0.69063814  0.55407510  0.03328738     0.01400
C1435       C  0.57599387  0.39935493  0.07286916     0.42700
C1436       C  0.70321041  0.38327689  0.47714297    -0.06900
N1437       N  0.61259024  0.55154455  0.45520906    -0.25700
H1438       H  0.61927911  0.40057315  0.42149610     0.06900
N1439       N  0.60219981  0.41627057  0.07438071    -0.46900
H1440       H  0.71939806  0.36988560  0.49056276     0.06900
C1441       C  0.69244156  0.62562302  0.45129466     0.42600
C1442       C  0.66833765  0.39210750  0.06712218    -0.06400
Co1443     Co  0.69196954  0.49238475  0.50624273     0.73800
N1444       N  0.66745319  0.38397408  0.44809654    -0.46600
C1445       C  0.58470162  0.61642227  0.07107887     0.42800
N1446       N  0.70389305  0.60010246  0.03252433    -0.46600
Co1447     Co  0.64180176  0.49228323  0.45792165     0.73900
C1448       C  0.60906075  0.57765745  0.43243411    -0.06900
C1449       C  0.56521667  0.42114989  0.04731093    -0.06500
N1450       N  0.67107780  0.55397160  0.05167417    -0.26000
N1451       N  0.56594310  0.42252661  0.46056819    -0.46800
H1452       H  0.55084431  0.60456341  0.03845160     0.06900
C1453       C  0.70608604  0.59648564  0.47322800    -0.06900
Cl1454     Cl  0.63969337  0.49662700  0.00442123    -0.49900
C1455       C  0.68766185  0.35206620  0.45753162     0.42600
H1456       H  0.65727641  0.61217127  0.08027900     0.06800
N1457       N  0.67171106  0.59413534  0.44288085    -0.46600
C1458       C  0.91621373  0.39700009  0.07758495     0.42500
N1459       N  0.90897009  0.43821845  0.03962671     0.01400
C1460       C  0.79861351  0.60765600  0.02556420    -0.06500
H1461       H  0.77192531  0.39181202  0.01925471     0.06800
C1462       C  0.83275567  0.38234010  0.44345447    -0.06900
Co1463     Co  0.85559914  0.49501104  0.05002348     0.74200
N1464       N  0.80559841  0.44079826  0.03062180    -0.26100
Co1465     Co  0.80683633  0.49402451  0.49997472     0.74100
C1466       C  0.81139235  0.35027031  0.45567935     0.42600
N1467       N  0.89167960  0.43228673  0.45874752     0.01000
N1468       N  0.81056507  0.42904958  0.47307218     0.01100
N1469       N  0.82969097  0.60263868  0.05903414    -0.46900
H1470       H  0.87106881  0.40155574  0.08852313     0.06800
N1471       N  0.82466809  0.43796414  0.04919626     0.01400
N1472       N  0.80836739  0.54645740  0.46835100     0.01100
C1473       C  0.80174546  0.61596987  0.44405552     0.42700
N1474       N  0.91226629  0.43450932  0.47615175    -0.25500
C1475       C  0.89013045  0.58694536  0.07106532    -0.06400
N1476       N  0.92879225  0.41748263  0.05521364    -0.46600
N1477       N  0.79138928  0.58693010  0.46441690    -0.46800
C1478       C  0.91854321  0.60410838  0.06944776     0.42500
N1479       N  0.82698683  0.55643588  0.04672489     0.01300
N1480       N  0.91183399  0.54612872  0.47209443    -0.25500
N1481       N  0.88483074  0.43506047  0.05187113    -0.26000
N1482       N  0.88998210  0.54815794  0.45602793     0.01000
H1483       H  0.95439426  0.56826095  0.46424781     0.06900
H1484       H  0.84254542  0.60078978  0.42111861     0.06900
N1485       N  0.80913800  0.55800215  0.02669152    -0.26100
N1486       N  0.83120581  0.42943087  0.45578027    -0.25700
N1487       N  0.90941918  0.55132030  0.03623799     0.01400
C1488       C  0.80047900  0.36689137  0.05454710     0.42700
C1489       C  0.93324047  0.40415781  0.46642905    -0.06900
N1490       N  0.82956549  0.54650436  0.45194788    -0.25700
H1491       H  0.84890605  0.36993837  0.42987361     0.06900
N1492       N  0.82283246  0.39380851  0.06357863    -0.46900
H1493       H  0.95382193  0.40254560  0.47489182     0.06900
C1494       C  0.92092459  0.58815308  0.43234477     0.42600
C1495       C  0.88692021  0.40422019  0.07342485    -0.06400
Co1496     Co  0.91243498  0.49225781  0.00633570     0.73800
N1497       N  0.89715392  0.40108508  0.43832769    -0.46600
C1498       C  0.81247468  0.63738869  0.04705963     0.42800
N1499       N  0.92957700  0.57977144  0.04741109    -0.46600
Co1500     Co  0.86046343  0.48932026  0.45547640     0.73900
C1501       C  0.82735961  0.58895275  0.43580881    -0.06900
C1502       C  0.78863307  0.39973762  0.03305778    -0.06500
N1503       N  0.88681420  0.55225801  0.05114483    -0.26000
N1504       N  0.79877428  0.38152426  0.47433439    -0.46800
H1505       H  0.78467607  0.62267045  0.01049624     0.06900
C1506       C  0.93282247  0.56984336  0.45844358    -0.06900
Cl1507     Cl  0.85999522  0.49268901  0.00277786    -0.49900
C1508       C  0.92307027  0.38210082  0.44063328     0.42600
H1509       H  0.87625269  0.59111840  0.08798723     0.06800
N1510       N  0.89437513  0.57411401  0.43353484    -0.46600
C1511       C  0.69039976  0.12848660  0.05659589     0.42500
N1512       N  0.71243984  0.05322010  0.05802993     0.01400
C1513       C  0.70632044  0.92380706  0.18044164    -0.06500
H1514       H  0.71387049  0.09768333  0.19506809     0.06800
C1515       C  0.82186155  0.08808183  0.13436758    -0.06900
Co1516     Co  0.69844220  0.99624713  0.10814282     0.74200
N1517       N  0.71707040  0.05935790  0.15615877    -0.26100
Co1518     Co  0.75115199  0.00530304  0.15671538     0.74100
C1519       C  0.82186502  0.10294259  0.16238960     0.42600
N1520       N  0.79265762  0.05907147  0.07205877     0.01000
N1521       N  0.78342151  0.06236156  0.15285934     0.01100
N1522       N  0.67946789  0.91580943  0.14413522    -0.46900
H1523       H  0.66485548  0.10802632  0.09341223     0.06800
N1524       N  0.69879043  0.05568293  0.13642509     0.01400
N1525       N  0.78524796  0.95138129  0.15545569     0.01100
C1526       C  0.82509817  0.91739461  0.16654701     0.42700
N1527       N  0.77307306  0.05482825  0.05397251    -0.25500
C1528       C  0.68298213  0.89090456  0.08038443    -0.06400
N1529       N  0.71071353  0.09903312  0.04492857    -0.46600
N1530       N  0.80027940  0.93475538  0.17635776    -0.46800
C1531       C  0.69332708  0.86013802  0.05774457     0.42500
N1532       N  0.70183276  0.94249091  0.13853796     0.01300
N1533       N  0.77618526  0.93763967  0.05668548    -0.25500
N1534       N  0.69498566  0.05202183  0.07822325    -0.26000
N1535       N  0.79630909  0.94114076  0.07436844     0.01000
H1536       H  0.76413217  0.87591296  0.03006362     0.06900
H1537       H  0.84078972  0.92384094  0.12342195     0.06900
N1538       N  0.71879013  0.94780272  0.15919816    -0.26100
N1539       N  0.79850305  0.06143543  0.13066809    -0.25700
N1540       N  0.71502805  0.93446310  0.05991302     0.01400
C1541       C  0.67860761  0.10856312  0.16393155     0.42700
C1542       C  0.77170624  0.09980960  0.03987052    -0.06900
N1543       N  0.79998333  0.94872738  0.13306674    -0.25700
H1544       H  0.83925463  0.08674703  0.12070041     0.06900
N1545       N  0.67617078  0.08373295  0.14048984    -0.46900
H1546       H  0.75633798  0.10682013  0.02482563     0.06900
C1547       C  0.80400608  0.86578592  0.05516041     0.42600
C1548       C  0.67960679  0.09642754  0.07823473    -0.06400
Co1549     Co  0.74421665  0.99474891  0.05613368     0.73800
N1550       N  0.80383579  0.10676703  0.07216323    -0.46600
C1551       C  0.67954805  0.90257249  0.17005122     0.42800
N1552       N  0.71362807  0.88935761  0.04635004    -0.46600
Co1553     Co  0.79679864  0.00255019  0.10211647     0.73900
C1554       C  0.82395618  0.92455923  0.13770860    -0.06900
C1555       C  0.70566098  0.09136656  0.17512024    -0.06500
N1556       N  0.69770129  0.93567688  0.08021456    -0.26000
N1557       N  0.79741362  0.08537966  0.17280603    -0.46800
H1558       H  0.71350746  0.92675977  0.20090908     0.06900
C1559       C  0.77915920  0.89132642  0.04373300    -0.06900
Cl1560     Cl  0.74772859  0.99968520  0.10622668    -0.49900
C1561       C  0.79135029  0.13594899  0.05270246     0.42600
H1562       H  0.66840429  0.87961354  0.09574398     0.06800
N1563       N  0.81286557  0.89887879  0.07459088    -0.46600
C1564       C  0.68517566  0.11280395  0.34371879     0.42500
N1565       N  0.72145463  0.06412021  0.35279556     0.01400
C1566       C  0.71625377  0.88570294  0.45971735    -0.06500
H1567       H  0.73125536  0.10484751  0.48256043     0.06800
C1568       C  0.81924632  0.08655550  0.43500016    -0.06900
Co1569     Co  0.70355538  0.99745854  0.40011377     0.74200
N1570       N  0.72131451  0.04983990  0.45087458    -0.26100
Co1571     Co  0.75116762  0.98944486  0.45006648     0.74100
C1572       C  0.80703094  0.11939056  0.45569894     0.42600
N1573       N  0.80514745  0.05272245  0.37464377     0.01000
N1574       N  0.78322231  0.04691834  0.45104579     0.01100
N1575       N  0.68897032  0.88834997  0.42308661    -0.46900
H1576       H  0.66446274  0.08819223  0.38280019     0.06800
N1577       N  0.70241397  0.05106862  0.43189327     0.01400
N1578       N  0.77966563  0.92671995  0.44677131     0.01100
C1579       C  0.79424593  0.84515409  0.44471984     0.42700
N1580       N  0.78823097  0.05920403  0.35390465    -0.25500
C1581       C  0.68194936  0.91840687  0.36147727    -0.06400
N1582       N  0.70964634  0.09371786  0.33356267    -0.46600
N1583       N  0.77592441  0.87838237  0.45653380    -0.46800
C1584       C  0.68401864  0.91069552  0.33288669     0.42500
N1585       N  0.70282692  0.93324455  0.42622494     0.01300
N1586       N  0.78579244  0.94793346  0.34806796    -0.25500
N1587       N  0.70471980  0.05998303  0.37367709    -0.26000
N1588       N  0.80178477  0.94022463  0.36935644     0.01000
H1589       H  0.79206890  0.92721522  0.30621544     0.06900
H1590       H  0.82487251  0.86653277  0.41108222     0.06900
N1591       N  0.71980485  0.93204166  0.44684248    -0.26100
N1592       N  0.80300198  0.04402417  0.43296673    -0.25700
N1593       N  0.72045103  0.95190267  0.34690679     0.01400
C1594       C  0.69448295  0.12266435  0.45443647     0.42700
C1595       C  0.80138541  0.09150808  0.33625249    -0.06900
N1596       N  0.79881188  0.92726529  0.42802621    -0.25700
H1597       H  0.83577967  0.09653112  0.42150935     0.06900
N1598       N  0.68649597  0.09398027  0.43298904    -0.46900
H1599       H  0.79467480  0.09942478  0.31590679     0.06900
C1600       C  0.82334049  0.89828616  0.33830751     0.42600
C1601       C  0.68282092  0.09098139  0.37045389    -0.06400
Co1602     Co  0.75390716  0.00633324  0.34959606     0.73800
N1603       N  0.82853226  0.07883531  0.37231214    -0.46600
C1604       C  0.69618471  0.85606471  0.44362043     0.42800
N1605       N  0.70845853  0.93246407  0.32489000    -0.46600
Co1606     Co  0.80232653  0.99073021  0.40163059     0.73900
C1607       C  0.80989772  0.87847841  0.42601230    -0.06900
C1608       C  0.71794808  0.09326887  0.46621024    -0.06500
N1609       N  0.70404376  0.94665005  0.36796711    -0.26000
N1610       N  0.78435488  0.09246643  0.46450313    -0.46800
H1611       H  0.72809166  0.87247504  0.47683618     0.06900
C1612       C  0.79818329  0.92334435  0.32702900    -0.06900
Cl1613     Cl  0.75276129  0.99643307  0.40018042    -0.49900
C1614       C  0.82815310  0.10538586  0.34909695     0.42600
H1615       H  0.66378140  0.91446932  0.37397147     0.06800
N1616       N  0.82388146  0.91135393  0.36425062    -0.46600
C1617       C  0.55368264  0.38669870  0.18551317     0.42500
N1618       N  0.53522653  0.38345233  0.22525383     0.01400
C1619       C  0.54958618  0.14165986  0.29199426    -0.06500
H1620       H  0.53454104  0.11285920  0.20298540     0.06800
C1621       C  0.92692605  0.22940895  0.21318987    -0.06900
Co1622     Co  0.55322617  0.28426063  0.25331410     0.74200
N1623       N  0.53297372  0.18935495  0.22242444    -0.26100
Co1624     Co  0.00001142  0.18713225  0.25372227     0.74100
C1625       C  0.92743213  0.17518808  0.20423652     0.42600
N1626       N  0.95319465  0.34999660  0.22780089     0.01000
N1627       N  0.96558973  0.19247378  0.22603339     0.01100
N1628       N  0.57733280  0.21280504  0.29224703    -0.46900
H1629       H  0.58097630  0.31459870  0.19426248     0.06800
N1630       N  0.55103928  0.22855509  0.22302163     0.01400
N1631       N  0.96863955  0.18924599  0.28373129     0.01100
C1632       C  0.93482008  0.16987847  0.31025631     0.42700
N1633       N  0.97177973  0.38776480  0.22840596    -0.25500
C1634       C  0.56798221  0.33654441  0.30875901    -0.06400
N1635       N  0.53456371  0.40938021  0.20195233    -0.46600
N1636       N  0.95809001  0.14987033  0.29834886    -0.46800
C1637       C  0.55716906  0.38078371  0.32467430     0.42500
N1638       N  0.55383576  0.22308942  0.27995895     0.01300
N1639       N  0.97316129  0.38292086  0.28879931    -0.25500
N1640       N  0.55314516  0.34407099  0.22474098    -0.26000
N1641       N  0.95422077  0.34583421  0.28782786     0.01000
H1642       H  0.98574469  0.43528423  0.32107089     0.06900
H1643       H  0.91256383  0.24709170  0.30095293     0.06900
N1644       N  0.53653419  0.18255180  0.27920219    -0.26100
N1645       N  0.95008851  0.23572250  0.22713611    -0.25700
N1646       N  0.53735551  0.37966042  0.28571167     0.01400
C1647       C  0.56983511  0.17307225  0.19573221     0.42700
C1648       C  0.97020667  0.41499711  0.20525594    -0.06900
N1649       N  0.95219734  0.23130230  0.28423339    -0.25700
H1650       H  0.90952093  0.25655899  0.21380333     0.06900
N1651       N  0.57264540  0.22012117  0.20761723    -0.46900
H1652       H  0.98357388  0.44678793  0.19928175     0.06900
C1653       C  0.95057355  0.37601543  0.32827119     0.42600
C1654       C  0.56631819  0.34413765  0.20104043    -0.06400
Co1655     Co  0.00265449  0.38644649  0.25762636     0.73800
N1656       N  0.93987000  0.34756534  0.20461213    -0.46600
C1657       C  0.57676008  0.16298302  0.30077918     0.42800
N1658       N  0.53815708  0.40520650  0.30899890    -0.46600
Co1659     Co  0.95243632  0.29156827  0.25669630     0.73900
C1660       C  0.93101552  0.22284735  0.30045970    -0.06900
C1661       C  0.54314139  0.15191073  0.20556614    -0.06500
N1662       N  0.55448691  0.33891787  0.28506825    -0.26000
N1663       N  0.95201315  0.15395268  0.21316168    -0.46800
H1664       H  0.54253946  0.10110337  0.29239636     0.06900
C1665       C  0.97195905  0.40534638  0.31346579    -0.06900
Cl1666     Cl  0.00155950  0.28690053  0.25573058    -0.49900
C1667       C  0.94984809  0.38675508  0.18926232     0.42600
H1668       H  0.58216205  0.30563754  0.31496504     0.06800
N1669       N  0.94077474  0.34013923  0.31077961    -0.46600
C1670       C  0.57010329  0.84270772  0.20300007     0.42500
N1671       N  0.53458200  0.82175084  0.22663647     0.01400
C1672       C  0.52994093  0.59600243  0.30529450    -0.06500
H1673       H  0.51255649  0.58141500  0.18741156     0.06800
C1674       C  0.93135506  0.67323570  0.20105230    -0.06900
Co1675     Co  0.54917773  0.71762575  0.25297640     0.74200
N1676       N  0.52707040  0.62943134  0.22008968    -0.26100
Co1677     Co  0.99639892  0.62283100  0.25036342     0.74100
C1678       C  0.94252707  0.63394586  0.18232765     0.42600
N1679       N  0.95043843  0.78695322  0.22646702     0.01000
N1680       N  0.96543417  0.63181539  0.22017471     0.01100
N1681       N  0.56172769  0.66010451  0.30460155    -0.46900
H1682       H  0.59001155  0.76173305  0.20835616     0.06800
N1683       N  0.54697992  0.66451210  0.22160592     0.01400
N1684       N  0.96650392  0.62532987  0.28106580     0.01100
C1685       C  0.94900659  0.62215925  0.32086702     0.42700
N1686       N  0.96912783  0.82512911  0.22701120    -0.25500
C1687       C  0.57653162  0.77936414  0.29426459    -0.06400
N1688       N  0.54666260  0.86251581  0.21440066    -0.46600
N1689       N  0.96677350  0.59782541  0.30383848    -0.46800
C1690       C  0.57928089  0.83557826  0.29785686     0.42500
N1691       N  0.54792986  0.65832005  0.28164530     0.01300
N1692       N  0.97080216  0.82052968  0.28365739    -0.25500
N1693       N  0.55032623  0.77873321  0.22549825    -0.26000
N1694       N  0.95289044  0.78112954  0.28356612     0.01000
H1695       H  0.96832342  0.89851423  0.30153438     0.06900
H1696       H  0.92299218  0.69657555  0.31390543     0.06900
N1697       N  0.52856356  0.62200484  0.28146842    -0.26100
N1698       N  0.94746488  0.67074656  0.22288474    -0.25700
N1699       N  0.53798139  0.81807493  0.28276204     0.01400
C1700       C  0.54932043  0.63807433  0.18041503     0.42700
C1701       C  0.95802206  0.86775802  0.21449257    -0.06900
N1702       N  0.94956213  0.66626044  0.28239837    -0.25700
H1703       H  0.91523350  0.70223065  0.19839024     0.06900
N1704       N  0.56054015  0.67065636  0.19872204    -0.46900
H1705       H  0.96653194  0.90723530  0.21501627     0.06900
C1706       C  0.93336878  0.83787819  0.30951416     0.42600
C1707       C  0.57218408  0.78769375  0.21009079    -0.06400
Co1708     Co  0.50330957  0.82410775  0.25611263     0.73800
N1709       N  0.92725670  0.80121310  0.21449514    -0.46600
C1710       C  0.55184022  0.62221453  0.32097234     0.42800
N1711       N  0.55436043  0.85755733  0.29076317    -0.46600
Co1712     Co  0.94995019  0.72566435  0.25378485     0.73900
C1713       C  0.93699511  0.66654134  0.30644539    -0.06900
C1714       C  0.52736665  0.60926450  0.19496438    -0.06500
N1715       N  0.55192758  0.77289194  0.28296545    -0.26000
N1716       N  0.96338422  0.60910571  0.19606297    -0.46800
H1717       H  0.51587486  0.56579008  0.31207120     0.06900
C1718       C  0.96009810  0.85900880  0.29963287    -0.06900
Cl1719     Cl  0.99927449  0.72140966  0.25262954    -0.49900
C1720       C  0.93012353  0.85121296  0.20616037     0.42600
H1721       H  0.59278897  0.75040381  0.29264574     0.06800
N1722       N  0.93109644  0.79004789  0.29852356    -0.46600
C1723       C  0.89118672  0.82846760  0.33494809    -0.05800
C1724       C  0.90706572  0.86217919  0.31879408     0.00200
C1725       C  0.89365138  0.90512320  0.30560955    -0.08400
C1726       C  0.86498446  0.91392731  0.31020892    -0.05800
C1727       C  0.84930844  0.87906205  0.32602744     0.00100
C1728       C  0.86254595  0.83438426  0.33750063    -0.08300
C1729       C  0.84731493  0.79112152  0.35239735     0.62000
H1730       H  0.90101364  0.79396624  0.34399232     0.12700
H1731       H  0.85483638  0.94900848  0.30229585     0.12800
C1732       C  0.90934358  0.94135778  0.28693297     0.62300
F1733       F  0.85320499  0.74282120  0.34048961    -0.22900
F1734       F  0.81891034  0.79808956  0.35195078    -0.20200
F1735       F  0.85626661  0.78980512  0.37877332    -0.19900
F1736       F  0.92119467  0.91258992  0.26626552    -0.19900
F1737       F  0.92979341  0.96711335  0.30121072    -0.20300
F1738       F  0.89204084  0.97891976  0.27554259    -0.22900
C1739       C  0.60802671  0.90967324  0.31465428    -0.05800
C1740       C  0.60670510  0.86324959  0.29948030     0.00200
C1741       C  0.63224116  0.84157405  0.28921307    -0.08400
C1742       C  0.65760035  0.86076053  0.29905018    -0.05800
C1743       C  0.65866390  0.90406858  0.31625143     0.00100
C1744       C  0.63355505  0.93182479  0.32214319    -0.08300
C1745       C  0.63262278  0.98425212  0.33679958     0.62000
H1746       H  0.58893535  0.92805324  0.32149553     0.12700
H1747       H  0.67676467  0.84052707  0.29391189     0.12800
C1748       C  0.63443963  0.79877467  0.26793769     0.62300
F1749       F  0.61431317  0.01817570  0.32398365    -0.22900
F1750       F  0.65816022  0.00818186  0.33705933    -0.20200
F1751       F  0.62371044  0.97673207  0.36290126    -0.19900
F1752       F  0.61081143  0.79604098  0.25258336    -0.19900
F1753       F  0.63986759  0.75038545  0.27995067    -0.20300
F1754       F  0.65597387  0.80953762  0.25051354    -0.22900
C1755       C  0.86374283  0.10803971  0.31247661    -0.05800
C1756       C  0.85486026  0.12519940  0.33795630     0.00200
C1757       C  0.87417860  0.15172680  0.35483355    -0.08400
C1758       C  0.90174335  0.15715251  0.34637890    -0.05800
C1759       C  0.91044523  0.14146880  0.32080584     0.00100
C1760       C  0.89109577  0.11724758  0.30334362    -0.08300
C1761       C  0.89935982  0.10311334  0.27488607     0.62000
H1762       H  0.84923382  0.08701957  0.29986482     0.12700
H1763       H  0.91622951  0.17819830  0.35910230     0.12800
C1764       C  0.86663385  0.17615457  0.38174070     0.62300
F1765       F  0.87792680  0.07960433  0.26093339    -0.22900
F1766       F  0.92171302  0.06863749  0.27542953    -0.20200
F1767       F  0.90686402  0.14830679  0.26119628    -0.19900
F1768       F  0.87574715  0.14331126  0.40216150    -0.19900
F1769       F  0.83850324  0.18451827  0.38420705    -0.20300
F1770       F  0.87928106  0.22485298  0.38465758    -0.22900
C1771       C  0.62343055  0.12126105  0.29443550    -0.05800
C1772       C  0.60262550  0.13992554  0.31211038     0.00200
C1773       C  0.61038217  0.15503092  0.33830607    -0.08400
C1774       C  0.63824217  0.15098332  0.34603428    -0.05800
C1775       C  0.65889523  0.12867923  0.32941070     0.00100
C1776       C  0.65148640  0.11448924  0.30273606    -0.08300
C1777       C  0.67295781  0.09407274  0.28297148     0.62000
H1778       H  0.61769236  0.11361725  0.27380301     0.12700
H1779       H  0.64402093  0.16434549  0.36590386     0.12800
C1780       C  0.58904852  0.17622825  0.35808076     0.62300
F1781       F  0.66178931  0.08632249  0.25767116    -0.22900
F1782       F  0.68376553  0.04620667  0.29166822    -0.20200
F1783       F  0.69409254  0.13052144  0.28068262    -0.19900
F1784       F  0.56764912  0.14039244  0.36039098    -0.19900
F1785       F  0.57854937  0.22414453  0.34915738    -0.20300
F1786       F  0.60019973  0.18400793  0.38339165    -0.22900
C1787       C  0.88162118  0.87674339  0.21613027    -0.05800
C1788       C  0.90528526  0.88350864  0.19988057     0.00200
C1789       C  0.90292866  0.91164915  0.17563078    -0.08400
C1790       C  0.87646410  0.92829755  0.16730982    -0.05800
C1791       C  0.85211569  0.91399536  0.18136616     0.00100
C1792       C  0.85492612  0.89193458  0.20733376    -0.08300
C1793       C  0.83000517  0.88321870  0.22526640     0.62000
H1794       H  0.88400817  0.85627442  0.23513376     0.12700
H1795       H  0.87478296  0.95041125  0.14882002     0.12800
C1796       C  0.92792392  0.92018856  0.15767940     0.62300
F1797       F  0.83742302  0.86140265  0.24978622    -0.22900
F1798       F  0.81160121  0.84933381  0.21289427    -0.20200
F1799       F  0.81704079  0.93128260  0.23017190    -0.19900
F1800       F  0.92089037  0.94543565  0.13393302    -0.19900
F1801       F  0.93987895  0.87193125  0.15116874    -0.20300
F1802       F  0.94714902  0.95087270  0.17096243    -0.22900
C1803       C  0.63337274  0.86534758  0.16305590    -0.05800
C1804       C  0.65181948  0.88854714  0.18167799     0.00200
C1805       C  0.64111816  0.90464768  0.20704010    -0.08400
C1806       C  0.61282764  0.89432898  0.21296715    -0.05800
C1807       C  0.59497390  0.87118751  0.19392401     0.00100
C1808       C  0.60517070  0.85888896  0.16826565    -0.08300
C1809       C  0.58643936  0.83542999  0.14685871     0.62000
H1810       H  0.64112717  0.85244690  0.14369542     0.12700
H1811       H  0.60476156  0.90193589  0.23290495     0.12800
C1812       C  0.65913502  0.93167849  0.22777566     0.62300
F1813       F  0.59760803  0.84121145  0.12144698    -0.22900
F1814       F  0.56092489  0.86076213  0.14703674    -0.20200
F1815       F  0.58263220  0.78212959  0.15184074    -0.19900
F1816       F  0.66967991  0.97801268  0.21731658    -0.19900
F1817       F  0.68072800  0.89849407  0.23505432    -0.20300
F1818       F  0.64441124  0.94445097  0.25075746    -0.22900
C1819       C  0.87321154  0.09111775  0.16789015    -0.05800
C1820       C  0.84818213  0.11382528  0.17749082     0.00200
C1821       C  0.84962416  0.15116118  0.19847636    -0.08400
C1822       C  0.87590607  0.16582635  0.20837105    -0.05800
C1823       C  0.90105648  0.14691978  0.19704496     0.00100
C1824       C  0.89955279  0.10839909  0.17660919    -0.08300
C1825       C  0.92556568  0.08888523  0.16267250     0.62000
H1826       H  0.87213290  0.06131387  0.15234468     0.12700
H1827       H  0.87682765  0.19447168  0.22445613     0.12800
C1828       C  0.82360570  0.17780425  0.20917835     0.62300
F1829       F  0.91968617  0.05343061  0.14232495    -0.22900
F1830       F  0.94271187  0.06393869  0.18104590    -0.20200
F1831       F  0.93933824  0.13137323  0.15144076    -0.19900
F1832       F  0.80680381  0.14043382  0.22110478    -0.19900
F1833       F  0.80936808  0.20192530  0.18830344    -0.20300
F1834       F  0.82954496  0.21623822  0.22810002    -0.22900
C1835       C  0.63704633  0.09408288  0.19201659    -0.05800
C1836       C  0.65295506  0.12909286  0.17645482     0.00200
C1837       C  0.63989549  0.17416853  0.16515767    -0.08400
C1838       C  0.61136598  0.18164225  0.16880799    -0.05800
C1839       C  0.59554868  0.14820390  0.18522336     0.00100
C1840       C  0.60854431  0.10332286  0.19708424    -0.08300
C1841       C  0.59252862  0.06521200  0.21466301     0.62000
H1842       H  0.64689316  0.05830960  0.19926111     0.12700
H1843       H  0.60147836  0.21635894  0.16009176     0.12800
C1844       C  0.65558330  0.21457385  0.14865312     0.62300
F1845       F  0.60914839  0.02448905  0.22418244    -0.22900
F1846       F  0.57131927  0.04301421  0.19989201    -0.20200
F1847       F  0.58161699  0.09159003  0.23659648    -0.19900
F1848       F  0.65414918  0.20122020  0.12176930    -0.19900
F1849       F  0.68302009  0.21697061  0.15652903    -0.20300
F1850       F  0.64420991  0.26463959  0.15203621    -0.22900
C1851       C  0.82018987  0.72792281  0.02776688    -0.05800
C1852       C  0.81469967  0.69615492  0.05035885     0.00200
C1853       C  0.81291195  0.72115259  0.07583201    -0.08400
C1854       C  0.80944854  0.77685733  0.07684482    -0.05800
C1855       C  0.81161189  0.80828635  0.05365419     0.00100
C1856       C  0.82087603  0.78387937  0.02967202    -0.08300
C1857       C  0.83525360  0.81612349  0.00812187     0.62000
H1858       H  0.82500220  0.70860185  0.00889969     0.12700
H1859       H  0.80499117  0.79622955  0.09577165     0.12800
C1860       C  0.81493266  0.68949388  0.10174432     0.62300
F1861       F  0.84065018  0.78565060  0.48642091    -0.22900
F1862       F  0.85923623  0.83698979  0.01884267    -0.20200
F1863       F  0.81906704  0.85933229  0.50073523    -0.19900
F1864       F  0.84103297  0.66697015  0.10359959    -0.19900
F1865       F  0.79538855  0.64974644  0.10226346    -0.20300
F1866       F  0.81096214  0.72118070  0.12411642    -0.22900
C1867       C  0.77847886  0.28440569  0.03849111    -0.05800
C1868       C  0.79646386  0.30816207  0.05699718     0.00200
C1869       C  0.81085002  0.27483399  0.07534922    -0.08400
C1870       C  0.80796863  0.21954128  0.07299430    -0.05800
C1871       C  0.79160700  0.19559154  0.05295695    -0.04100
C1872       C  0.77642071  0.22940105  0.03517656    -0.08300
C1873       C  0.75821302  0.21035642  0.01225135     0.62000
H1874       H  0.76595459  0.30932800  0.02581065     0.12700
H1875       H  0.81954642  0.19438874  0.08661940     0.12800
C1876       C  0.83048276  0.29592824  0.09651045     0.62300
F1877       F  0.75092835  0.25084352  0.99482060    -0.22900
F1878       F  0.73416813  0.18942125  0.02209469    -0.20200
F1879       F  0.77051835  0.17377104  0.49684996    -0.19900
F1880       F  0.81905627  0.33927768  0.10948499    -0.19900
F1881       F  0.85498607  0.30972516  0.08422026    -0.20300
F1882       F  0.83650598  0.25830627  0.11596497    -0.22900
C1883       C  0.80344553  0.75946477  0.42137766    -0.05800
C1884       C  0.79223515  0.78552103  0.44408337     0.00200
C1885       C  0.77902407  0.75332314  0.46400990    -0.08400
C1886       C  0.78046298  0.69807886  0.46146935    -0.05800
C1887       C  0.79487118  0.67306383  0.44065715     0.00100
C1888       C  0.80380674  0.70393751  0.41879673    -0.08300
C1889       C  0.81147738  0.68016567  0.39181598     0.62000
H1890       H  0.81106154  0.78250678  0.40473415     0.12700
H1891       H  0.77044403  0.67381359  0.47638099     0.12800
C1892       C  0.76236981  0.77327145  0.48780224     0.62300
F1893       F  0.79916421  0.70919794  0.37145862    -0.22900
F1894       F  0.80221297  0.62873805  0.38911325    -0.20200
F1895       F  0.83988203  0.68113990  0.38856311    -0.19900
F1896       F  0.73496675  0.77746472  0.48075077    -0.19900
F1897       F  0.77034961  0.82149871  0.99516055    -0.20300
F1898       F  0.76577577  0.73914333  0.00872684    -0.22900
C1899       C  0.80220833  0.20694907  0.43274591    -0.05800
C1900       C  0.80974036  0.17846581  0.45592204     0.00200
C1901       C  0.82136037  0.20659827  0.47773772    -0.08400
C1902       C  0.81949427  0.26261127  0.47796046    -0.05800
C1903       C  0.81096995  0.29110319  0.45506118     0.00100
C1904       C  0.80516918  0.26254837  0.43119846    -0.08300
C1905       C  0.80399220  0.28987550  0.40393599     0.62000
H1906       H  0.79529658  0.18493927  0.41535690     0.12700
H1907       H  0.82673504  0.28462718  0.49523055     0.12800
C1908       C  0.83851204  0.17806279  0.49880136     0.62300
F1909       F  0.79450669  0.25633983  0.38398854    -0.22900
F1910       F  0.83027415  0.30565601  0.39693586    -0.20200
F1911       F  0.78686902  0.33397027  0.40460670    -0.19900
F1912       F  0.86337021  0.16256137  0.48741123    -0.19900
F1913       F  0.82374556  0.13408633  0.00797326    -0.20300
F1914       F  0.84500748  0.20925211  0.01987416    -0.22900
C1915       C  0.93312858  0.56522203  0.35740802    -0.05800
C1916       C  0.94672012  0.61124796  0.35008860     0.00200
C1917       C  0.95624947  0.64615453  0.37047374    -0.08400
C1918       C  0.94962852  0.63539191  0.39772879    -0.05800
C1919       C  0.93394483  0.59097399  0.40495335     0.00100
C1920       C  0.92642450  0.55441026  0.38424320    -0.08300
C1921       C  0.91035252  0.50443874  0.38973538     0.62000
H1922       H  0.92632568  0.53883851  0.34158214     0.12700
H1923       H  0.95524495  0.66322122  0.41331490     0.12800
C1924       C  0.97290975  0.69492709  0.36348264     0.62300
F1925       F  0.91385439  0.46765722  0.36946994    -0.22900
F1926       F  0.88236299  0.51560542  0.39174728    -0.20200
F1927       F  0.91980658  0.48221226  0.41317645    -0.19900
F1928       F  0.95594549  0.73239449  0.35152832    -0.19900
F1929       F  0.99404540  0.68165762  0.34595836    -0.20300
F1930       F  0.98469962  0.71728531  0.38611369    -0.22900
C1931       C  0.92527322  0.66450644  0.10760018    -0.05800
C1932       C  0.93292072  0.61701476  0.09514213     0.00200
C1933       C  0.94579756  0.57744757  0.11100829    -0.08400
C1934       C  0.94543525  0.58245851  0.13935438    -0.05800
C1935       C  0.93812821  0.63033774  0.15217340     0.00100
C1936       C  0.92950663  0.67363454  0.13531569    -0.08300
C1937       C  0.92460881  0.72973241  0.14532960     0.62000
H1938       H  0.91518673  0.69446721  0.09535860     0.12700
H1939       H  0.95303087  0.55001705  0.15163756     0.12800
C1940       C  0.96183789  0.53276462  0.09788217     0.62300
F1941       F  0.92399711  0.76578969  0.12434428    -0.22900
F1942       F  0.94581363  0.74508318  0.16222635    -0.20200
F1943       F  0.89932590  0.73287539  0.15822053    -0.19900
F1944       F  0.98216372  0.55383535  0.08156453    -0.19900
F1945       F  0.94456293  0.50263977  0.08239337    -0.20300
F1946       F  0.97451314  0.50002339  0.11658089    -0.22900
C1947       C  0.96582144  0.39090606  0.37612417    -0.05800
C1948       C  0.94569421  0.37223304  0.35798766     0.00200
C1949       C  0.92132492  0.34916449  0.36869251    -0.08400
C1950       C  0.91914210  0.34201082  0.39655924    -0.05800
C1951       C  0.93696119  0.36724603  0.41473779     0.00100
C1952       C  0.96130811  0.39122095  0.40435069    -0.08300
C1953       C  0.98192443  0.41878172  0.42239496     0.62000
H1954       H  0.98451864  0.40789928  0.36796023     0.12700
H1955       H  0.90079195  0.32302717  0.40449780     0.12800
C1956       C  0.89575348  0.33821441  0.35181806     0.62300
F1957       F  0.96984594  0.46257288  0.43432426    -0.22900
F1958       F  0.00464262  0.43606531  0.40810444    -0.20200
F1959       F  0.99117052  0.38408835  0.44195788    -0.19900
F1960       F  0.89776964  0.28845959  0.34071336    -0.19900
F1961       F  0.89249566  0.37575920  0.33179252    -0.20300
F1962       F  0.87196311  0.34016071  0.36724882    -0.22900
C1963       C  0.92620759  0.43054891  0.15251309    -0.05800
C1964       C  0.94471230  0.39146574  0.16018160     0.00200
C1965       C  0.95559855  0.35603536  0.14072631    -0.08400
C1966       C  0.94762530  0.36223917  0.11349257    -0.05800
C1967       C  0.92770858  0.40017835  0.10568808     0.00100
C1968       C  0.91675153  0.43527363  0.12607742    -0.08300
C1969       C  0.89307078  0.47468545  0.12263733     0.62000
H1970       H  0.91765253  0.45580793  0.16811153     0.12700
H1971       H  0.95541822  0.33504649  0.09842694     0.12800
C1972       C  0.97441856  0.31055799  0.14903143     0.62300
F1973       F  0.89585941  0.51754262  0.13970951    -0.22900
F1974       F  0.86829856  0.45028062  0.12871623    -0.20200
F1975       F  0.89209749  0.49485683  0.09726211    -0.19900
F1976       F  0.96000150  0.27607520  0.16534488    -0.19900
F1977       F  0.99692270  0.32972370  0.16301965    -0.20300
F1978       F  0.49002001  0.29954199  0.12448693    -0.22900
C1979       C  0.67470716  0.71583250  0.46336274    -0.05800
C1980       C  0.69226962  0.68443507  0.44735809     0.00200
C1981       C  0.70893949  0.70954640  0.42778981    -0.08400
C1982       C  0.70950943  0.76568461  0.42656514    -0.05800
C1983       C  0.69276527  0.79712263  0.44343254     0.00100
C1984       C  0.67425676  0.77173065  0.46113872    -0.08300
C1985       C  0.65427248  0.80444689  0.47755964     0.62000
H1986       H  0.66138155  0.69620330  0.47770642     0.12700
H1987       H  0.72312864  0.78542671  0.41253932     0.12800
C1988       C  0.72505466  0.67667397  0.40766907     0.62300
F1989       F  0.67125748  0.83549412  0.99443674    -0.22900
F1990       F  0.63994275  0.83708076  0.96087172    -0.20200
F1991       F  0.63662873  0.77293816  0.49233647    -0.19900
F1992       F  0.70666478  0.64969060  0.39146495    -0.19900
F1993       F  0.74167543  0.64025728  0.42082100    -0.20300
F1994       F  0.74164061  0.70777883  0.39150226    -0.22900
C1995       C  0.71351558  0.21156093  0.44678371    -0.05800
C1996       C  0.69096704  0.18117137  0.45497380     0.00200
C1997       C  0.66535193  0.20700247  0.46021444    -0.08400
C1998       C  0.66456375  0.26316008  0.46109752    -0.05800
C1999       C  0.68803020  0.29335285  0.45463668     0.00100
C2000       C  0.71158005  0.26698663  0.44472728    -0.08300
C2001       C  0.73318315  0.29680286  0.42932769     0.62000
H2002       H  0.73238614  0.19133877  0.44075155     0.12700
H2003       H  0.64562934  0.28376283  0.46642483     0.12800
C2004       C  0.63912827  0.17533686  0.46413703     0.62300
F2005       F  0.74895499  0.26198173  0.41439756    -0.22900
F2006       F  0.74974223  0.32452694  0.44692573    -0.20200
F2007       F  0.72078088  0.33175419  0.41149914    -0.19900
F2008       F  0.64218886  0.14156310  0.48582117    -0.19900
F2009       F  0.63395015  0.14582623  0.44129764    -0.20300
F2010       F  0.61636033  0.20773308  0.46864528    -0.22900
C2011       C  0.66922834  0.71829193  0.04656204    -0.05800
C2012       C  0.69360759  0.68975024  0.05261195     0.00200
C2013       C  0.71645066  0.71747093  0.06287552    -0.08400
C2014       C  0.71639048  0.77315889  0.06196397    -0.05800
C2015       C  0.69220499  0.80167085  0.05591175     0.00100
C2016       C  0.66749720  0.77367883  0.05054952    -0.08300
C2017       C  0.63936143  0.80099378  0.05171475     0.62000
H2018       H  0.65105251  0.69641481  0.04055560     0.12700
H2019       H  0.73465016  0.79488822  0.06797659     0.12800
C2020       C  0.73927622  0.68834158  0.07735797     0.62300
F2021       F  0.61826324  0.76764278  0.04376248    -0.22900
F2022       F  0.63870453  0.84544363  0.03552574    -0.20200
F2023       F  0.63407444  0.81625845  0.07785787    -0.19900
F2024       F  0.75383374  0.65741148  0.05936966    -0.19900
F2025       F  0.72812986  0.65633715  0.09711482    -0.20300
F2026       F  0.75692409  0.72334799  0.08979147    -0.22900
C2027       C  0.70873234  0.27284135  0.07125854    -0.05800
C2028       C  0.68924517  0.29976049  0.05542616     0.00200
C2029       C  0.66887021  0.27030229  0.04136663    -0.08400
C2030       C  0.67049353  0.21445251  0.04161242    -0.05800
C2031       C  0.69017514  0.18746619  0.05722041     0.00100
C2032       C  0.70860261  0.21713968  0.07359691    -0.08300
C2033       C  0.72681151  0.19076577  0.09465670     0.62000
H2034       H  0.72327800  0.29610440  0.08278005     0.12700
H2035       H  0.65579368  0.19125673  0.03027671     0.12800
C2036       C  0.64488192  0.29744472  0.02705738     0.62300
F2037       F  0.71037041  0.16855827  0.11422640    -0.22900
F2038       F  0.74440707  0.22644148  0.10693207    -0.20200
F2039       F  0.74274265  0.15139691  0.08338503    -0.19900
F2040       F  0.65465509  0.33369412  0.00866470    -0.19900
F2041       F  0.62840259  0.32342418  0.04551960    -0.20300
F2042       F  0.62832550  0.26161434  0.01366303    -0.22900
C2043       C  0.53755609  0.60052963  0.36883870    -0.05800
C2044       C  0.55748550  0.62104000  0.35081599     0.00200
C2045       C  0.58245713  0.64133622  0.36185362    -0.08400
C2046       C  0.58591942  0.64209477  0.38983274    -0.05800
C2047       C  0.56788446  0.61617747  0.40751410     0.00100
C2048       C  0.54262565  0.59668600  0.39701505    -0.08300
C2049       C  0.52150204  0.57147665  0.41530668     0.62000
H2050       H  0.51828908  0.58600717  0.36065738     0.12700
H2051       H  0.60463048  0.65899363  0.39813247     0.12800
C2052       C  0.60663095  0.65951800  0.34469452     0.62300
F2053       F  0.49794719  0.55678943  0.40141746    -0.22900
F2054       F  0.51384505  0.60707655  0.43509586    -0.20200
F2055       F  0.53276973  0.52683770  0.42717994    -0.19900
F2056       F  0.60097699  0.70934441  0.33481808    -0.19900
F2057       F  0.61131558  0.62449288  0.32379109    -0.20300
F2058       F  0.63100564  0.66241871  0.35929709    -0.22900
C2059       C  0.58322192  0.65500871  0.14396748    -0.05800
C2060       C  0.55594172  0.64279569  0.15094832     0.00200
C2061       C  0.53625676  0.64009064  0.12973194    -0.08400
C2062       C  0.54546915  0.63542300  0.10279922    -0.05800
C2063       C  0.57343741  0.64098977  0.09626025     0.00100
C2064       C  0.59173967  0.65795245  0.11702094    -0.08300
C2065       C  0.62038956  0.67962143  0.11194096     0.62000
H2066       H  0.59814943  0.66296796  0.15972090     0.12700
H2067       H  0.53103050  0.62461595  0.08710611     0.12800
C2068       C  0.50587251  0.63816547  0.13515458     0.62300
F2069       F  0.62322376  0.72769818  0.12489653    -0.22900
F2070       F  0.62512492  0.68835757  0.08500396    -0.20200
F2071       F  0.64001843  0.64486418  0.12209210    -0.19900
F2072       F  0.00132074  0.68506134  0.15365132    -0.19900
F2073       F  0.99836584  0.59777693  0.14431124    -0.20300
F2074       F  0.99215152  0.65810563  0.11171248    -0.22900
C2075       C  0.56783763  0.43877286  0.39477834    -0.05800
C2076       C  0.56270058  0.39486622  0.41151571     0.00200
C2077       C  0.55417201  0.34684762  0.39948545    -0.08400
C2078       C  0.55122020  0.34431955  0.37118271    -0.05800
C2079       C  0.55840292  0.38715452  0.35450852     0.00100
C2080       C  0.56727033  0.43483466  0.36652433    -0.08300
C2081       C  0.57897317  0.47918638  0.34953569     0.62000
H2082       H  0.57545536  0.47464347  0.40405695     0.12700
H2083       H  0.54452108  0.30796345  0.36176089     0.12800
C2084       C  0.54989457  0.29777537  0.41647231     0.62300
F2085       F  0.58892837  0.52016790  0.36514228    -0.22900
F2086       F  0.55872265  0.49904656  0.33266615    -0.20200
F2087       F  0.60075844  0.45990461  0.33428719    -0.19900
F2088       F  0.03278309  0.30656987  0.43854602    -0.19900
F2089       F  0.57483182  0.28215783  0.42775094    -0.20300
F2090       F  0.04231860  0.25475297  0.40310643    -0.22900
C2091       C  0.55752767  0.34310015  0.14040799    -0.05800
C2092       C  0.55389033  0.39013487  0.15538206     0.00200
C2093       C  0.55167471  0.43867749  0.14128643    -0.08400
C2094       C  0.55511274  0.43909900  0.11310365    -0.05800
C2095       C  0.56110443  0.39279728  0.09865649     0.00100
C2096       C  0.56120697  0.34376686  0.11226677    -0.08300
C2097       C  0.56603039  0.29270769  0.09694355     0.62000
H2098       H  0.55821777  0.30562307  0.15095507     0.12700
H2099       H  0.55540203  0.47633401  0.10226854     0.12800
C2100       C  0.54724183  0.49029747  0.15593088     0.62300
F2101       F  0.59259949  0.29176231  0.08664185    -0.22900
F2102       F  0.54726111  0.28954362  0.07600268    -0.20200
F2103       F  0.56273150  0.24861402  0.11314524    -0.19900
F2104       F  0.56712486  0.49656523  0.17566055    -0.19900
F2105       F  0.01242788  0.48254640  0.16460070    -0.20300
F2106       F  0.03986106  0.52881374  0.13734583    -0.22900
C2107       C  0.69018337  0.35910226  0.55751303     0.42500
N2108       N  0.68912325  0.43443733  0.53670583     0.01400
C2109       C  0.57229001  0.59837488  0.54622656    -0.06500
H2110       H  0.54385385  0.42424757  0.53997573     0.06800
C2111       C  0.60508043  0.40453790  0.93779538    -0.06900
Co2112     Co  0.64001280  0.49838085  0.55358032     0.74200
N2113       N  0.58646178  0.44910810  0.53651484    -0.26100
Co2114     Co  0.58777298  0.50381034  0.50399148     0.74100
C2115       C  0.57566433  0.39467053  0.93812943     0.42600
N2116       N  0.66960501  0.43037018  0.95895331     0.01000
N2117       N  0.58706756  0.44349305  0.97252371     0.01100
N2118       N  0.60881467  0.59003672  0.57362626    -0.46900
H2119       H  0.65321007  0.38256085  0.58382408     0.06800
N2120       N  0.60744818  0.44516075  0.55356209     0.01400
N2121       N  0.58951201  0.55605456  0.97037713     0.01100
C2122       C  0.57948399  0.59865751  0.93367313     0.42700
N2123       N  0.68994383  0.43115452  0.97650323    -0.25500
C2124       C  0.67273458  0.59927506  0.56665652    -0.06400
N2125       N  0.70194885  0.38773066  0.53757010    -0.46600
N2126       N  0.56908711  0.58256220  0.95787441    -0.46800
C2127       C  0.69445179  0.62986731  0.55416336     0.42500
N2128       N  0.61126805  0.55880511  0.55265608     0.01300
N2129       N  0.69155297  0.55054972  0.97421256    -0.25500
N2130       N  0.66885661  0.43727342  0.55432931    -0.26000
N2131       N  0.67185872  0.55004413  0.95594309     0.01000
H2132       H  0.72200085  0.60983090  0.98457274     0.06900
H2133       H  0.62038397  0.57444953  0.91443913     0.06900
N2134       N  0.59030345  0.56228581  0.53556477    -0.26100
N2135       N  0.60975343  0.43738202  0.95807343    -0.25700
N2136       N  0.69130138  0.55348009  0.53483244     0.01400
C2137       C  0.57504589  0.40120449  0.57321229     0.42700
C2138       C  0.70298192  0.38377560  0.97569345    -0.06900
N2139       N  0.61138013  0.55114154  0.95456803    -0.25700
H2140       H  0.61880422  0.40012374  0.92074906     0.06900
N2141       N  0.60132704  0.41764493  0.57526619    -0.46900
H2142       H  0.71936654  0.37077818  0.98898473     0.06900
C2143       C  0.69211321  0.62527339  0.94950812     0.42600
C2144       C  0.66855546  0.39264280  0.56891246    -0.06400
Co2145     Co  0.69150437  0.49273925  0.00476573     0.73800
N2146       N  0.66680705  0.38354979  0.94715186    -0.46600
C2147       C  0.58533770  0.61782208  0.57156762     0.42800
N2148       N  0.70503650  0.59898486  0.53435714    -0.46600
Co2149     Co  0.64100601  0.49218883  0.95687550     0.73900
C2150       C  0.60733009  0.57786132  0.93202513    -0.06900
C2151       C  0.56486459  0.42308292  0.54748949    -0.06500
N2152       N  0.67160422  0.55376623  0.55306980    -0.26000
N2153       N  0.56561135  0.42098846  0.96015201    -0.46800
H2154       H  0.55169550  0.60653312  0.53869675     0.06900
C2155       C  0.70572663  0.59615418  0.97144514    -0.06900
Cl2156     Cl  0.64017671  0.49690157  0.50547507    -0.49900
C2157       C  0.68720467  0.35193537  0.95652514     0.42600
H2158       H  0.65818177  0.61201174  0.58172932     0.06800
N2159       N  0.67102427  0.59422133  0.94141674    -0.46600
C2160       C  0.91571145  0.39820075  0.57747268     0.42500
N2161       N  0.90801654  0.43898736  0.53947037     0.01400
C2162       C  0.79757744  0.60810513  0.52627787    -0.06500
H2163       H  0.77055136  0.39264509  0.51981120     0.06800
C2164       C  0.83449638  0.38187225  0.94329395    -0.06900
Co2165     Co  0.85459841  0.49518249  0.55025065     0.74200
N2166       N  0.80443387  0.44121355  0.53105742    -0.26100
Co2167     Co  0.80817034  0.49361920  0.99948812     0.74100
C2168       C  0.81290892  0.35010281  0.95532369     0.42600
N2169       N  0.89336538  0.43159702  0.95882285     0.01000
N2170       N  0.81206783  0.42880933  0.97263699     0.01100
N2171       N  0.82879035  0.60277128  0.55961462    -0.46900
H2172       H  0.87061412  0.40205288  0.58868481     0.06800
N2173       N  0.82365245  0.43808088  0.54947121     0.01400
N2174       N  0.80997790  0.54605402  0.96789273     0.01100
C2175       C  0.80375502  0.61587864  0.94371629     0.42700
N2176       N  0.91381998  0.43363392  0.97637149    -0.25500
C2177       C  0.88905298  0.58693912  0.57145555    -0.06400
N2178       N  0.92804392  0.41882680  0.55500624    -0.46600
N2179       N  0.79310958  0.58668191  0.96387341    -0.46800
C2180       C  0.91738502  0.60445034  0.56982009     0.42500
N2181       N  0.82596248  0.55663459  0.54724564     0.01300
N2182       N  0.91351871  0.54530405  0.97235433    -0.25500
N2183       N  0.88395061  0.43534937  0.55182478    -0.26000
N2184       N  0.89170977  0.54760140  0.95627178     0.01000
H2185       H  0.95603624  0.56818705  0.96482428     0.06900
H2186       H  0.84489546  0.60075180  0.92132817     0.06900
N2187       N  0.80803578  0.55838647  0.52727372    -0.26100
N2188       N  0.83289175  0.42901459  0.95554529    -0.25700
N2189       N  0.90825210  0.55209288  0.53634783     0.01400
C2190       C  0.79932398  0.36715917  0.55480221     0.42700
C2191       C  0.93489749  0.40344739  0.96671479    -0.06900
N2192       N  0.83138471  0.54614353  0.95174918    -0.25700
H2193       H  0.85076713  0.36926351  0.92988999     0.06900
N2194       N  0.82181980  0.39380378  0.56375864    -0.46900
H2195       H  0.95544321  0.40189970  0.97527015     0.06900
C2196       C  0.92257768  0.58860017  0.93296047     0.42600
C2197       C  0.88633339  0.40467807  0.57342953    -0.06400
Co2198     Co  0.91109075  0.49316164  0.50618410     0.73800
N2199       N  0.89902959  0.40068013  0.93834715    -0.46600
C2200       C  0.81158285  0.63768967  0.54775453     0.42800
N2201       N  0.92839988  0.58050597  0.54762223    -0.46600
Co2202     Co  0.86219924  0.48879206  0.95542521     0.73900
C2203       C  0.82947058  0.58883156  0.93575467    -0.06900
C2204       C  0.78737845  0.40031364  0.53351975    -0.06500
N2205       N  0.88573463  0.55257634  0.55138675    -0.26000
N2206       N  0.80013473  0.38144297  0.97380717    -0.46800
H2207       H  0.78358588  0.62322823  0.51130481     0.06900
C2208       C  0.93448821  0.56953789  0.95892248    -0.06900
Cl2209     Cl  0.85865512  0.49329945  0.50292422    -0.49900
C2210       C  0.92494443  0.38170995  0.94077281     0.42600
H2211       H  0.87522539  0.59072767  0.58843931     0.06800
N2212       N  0.89606828  0.57431570  0.93401417    -0.46600
C2213       C  0.69033456  0.12902940  0.55782382     0.42500
N2214       N  0.71186434  0.05325958  0.55851421     0.01400
C2215       C  0.70699267  0.92479277  0.68114715    -0.06500
H2216       H  0.71448717  0.10038534  0.69476334     0.06800
C2217       C  0.82199617  0.08960412  0.63401551    -0.06900
Co2218     Co  0.69829632  0.99612902  0.60869420     0.74200
N2219       N  0.71720316  0.06052954  0.65622665    -0.26100
Co2220     Co  0.75133330  0.00687664  0.65679940     0.74100
C2221       C  0.82194133  0.10502786  0.66197660     0.42600
N2222       N  0.79218891  0.05973567  0.57160698     0.01000
N2223       N  0.78348549  0.06425653  0.65254760     0.01100
N2224       N  0.68009584  0.91553496  0.64494797    -0.46900
H2225       H  0.66470068  0.10802433  0.59441822     0.06800
N2226       N  0.69865530  0.05583487  0.63679874     0.01400
N2227       N  0.78534795  0.95311512  0.65546117     0.01100
C2228       C  0.82492889  0.91823447  0.66648720     0.42700
N2229       N  0.77239651  0.05528140  0.55374533    -0.25500
C2230       C  0.68319986  0.88995125  0.58127155    -0.06400
N2231       N  0.71041713  0.09955627  0.54584514    -0.46600
N2232       N  0.80021126  0.93591753  0.67633162    -0.46800
C2233       C  0.69359337  0.85929916  0.55859530     0.42500
N2234       N  0.70220733  0.94282573  0.63919493     0.01300
N2235       N  0.77570119  0.93816219  0.55694094    -0.25500
N2236       N  0.69445164  0.05177566  0.57873980    -0.26000
N2237       N  0.79594084  0.94195257  0.57448545     0.01000
H2238       H  0.76330291  0.87583944  0.53085039     0.06900
H2239       H  0.84074767  0.92475622  0.62338447     0.06900
N2240       N  0.71918866  0.94892604  0.65977578    -0.26100
N2241       N  0.79856677  0.06304692  0.63034626    -0.25700
N2242       N  0.71470283  0.93432324  0.56045175     0.01400
C2243       C  0.67873685  0.10953234  0.66402012     0.42700
C2244       C  0.77099000  0.10000389  0.53939113    -0.06900
N2245       N  0.80006838  0.95044931  0.63307176    -0.25700
H2246       H  0.83945412  0.08794049  0.62043004     0.06900
N2247       N  0.67598750  0.08362158  0.64093938    -0.46900
H2248       H  0.75550777  0.10691004  0.52442065     0.06900
C2249       C  0.80331837  0.86609242  0.55575219     0.42600
C2250       C  0.67931384  0.09648269  0.57912752    -0.06400
Co2251     Co  0.74366787  0.99501002  0.55639005     0.73800
N2252       N  0.80349423  0.10728747  0.57129146    -0.46600
C2253       C  0.68039342  0.90255605  0.67089483     0.42800
N2254       N  0.71352132  0.88907194  0.54698287    -0.46600
Co2255     Co  0.79664201  0.00378298  0.60194508     0.73900
C2256       C  0.82391484  0.92583098  0.63767039    -0.06900
C2257       C  0.70600339  0.09318372  0.67500221    -0.06500
N2258       N  0.69756956  0.93519860  0.58090765    -0.26000
N2259       N  0.79746197  0.08762839  0.67240212    -0.46800
H2260       H  0.71421893  0.92801942  0.70160023     0.06900
C2261       C  0.77848430  0.89152612  0.54428126    -0.06900
Cl2262     Cl  0.74757073  0.00054620  0.60640103    -0.49900
C2263       C  0.79085392  0.13624069  0.55182904     0.42600
H2264       H  0.66879736  0.87826491  0.59672231     0.06800
N2265       N  0.81239757  0.89956062  0.57490432    -0.46600
C2266       C  0.68471916  0.11269425  0.84377868     0.42500
N2267       N  0.72124291  0.06450954  0.85261305     0.01400
C2268       C  0.71748404  0.88469244  0.95868655    -0.06500
H2269       H  0.73265563  0.10423751  0.98232284     0.06800
C2270       C  0.81978838  0.08703932  0.93396179    -0.06900
Co2271     Co  0.70388951  0.99772741  0.89991611     0.74200
N2272       N  0.72226732  0.04937723  0.95068441    -0.26100
Co2273     Co  0.75210255  0.98910699  0.94945921     0.74100
C2274       C  0.80762361  0.11955412  0.95481655     0.42600
N2275       N  0.80497641  0.05325444  0.87375844     0.01000
N2276       N  0.78404660  0.04684114  0.95032069     0.01100
N2277       N  0.68974531  0.88829127  0.92239050    -0.46900
H2278       H  0.66448177  0.08791021  0.88309686     0.06800
N2279       N  0.70319537  0.05081660  0.93187549     0.01400
N2280       N  0.78071839  0.92671933  0.94589999     0.01100
C2281       C  0.79574207  0.84537437  0.94403105     0.42700
N2282       N  0.78782892  0.05979833  0.85321097    -0.25500
C2283       C  0.68119344  0.92083580  0.86081147    -0.06400
N2284       N  0.70914639  0.09380552  0.83344304    -0.46600
N2285       N  0.77732988  0.87843191  0.95581787    -0.46800
C2286       C  0.68341076  0.91298855  0.83224649     0.42500
N2287       N  0.70356213  0.93315613  0.92572935     0.01300
N2288       N  0.78566841  0.94861343  0.84720547    -0.25500
N2289       N  0.70475903  0.06043615  0.87367789    -0.26000
N2290       N  0.80183303  0.94097251  0.86838040     0.01000
H2291       H  0.79177237  0.92825401  0.80526919     0.06900
H2292       H  0.82606529  0.86728183  0.91012788     0.06900
N2293       N  0.72079785  0.93148732  0.94615835    -0.26100
N2294       N  0.80364634  0.04431306  0.93204057    -0.25700
N2295       N  0.72024903  0.95243828  0.84646675     0.01400
C2296       C  0.69565253  0.12238205  0.95453042     0.42700
C2297       C  0.80059333  0.09263020  0.83556648    -0.06900
N2298       N  0.79971786  0.92750938  0.92704010    -0.25700
H2299       H  0.83622860  0.09736129  0.92035402     0.06900
N2300       N  0.68738195  0.09381071  0.93316123    -0.46900
H2301       H  0.79359671  0.10086347  0.81534194     0.06900
C2302       C  0.82336762  0.89964425  0.83714485     0.42600
C2303       C  0.68270501  0.09107174  0.87059451    -0.06400
Co2304     Co  0.75368929  0.00680014  0.84906764     0.73800
N2305       N  0.82819447  0.07977377  0.87130765    -0.46600
C2306       C  0.69727413  0.85551043  0.94259176     0.42800
N2307       N  0.70813947  0.93362406  0.82437281    -0.46600
Co2308     Co  0.80268271  0.99117545  0.90066378     0.73900
C2309       C  0.81108205  0.87892237  0.92510362    -0.06900
C2310       C  0.71915666  0.09279134  0.96609178    -0.06500
N2311       N  0.70373582  0.94762968  0.86749284    -0.26000
N2312       N  0.78514605  0.09232924  0.96382587    -0.46800
H2313       H  0.72946782  0.87084030  0.97556083     0.06900
C2314       C  0.79802316  0.92432922  0.82604007    -0.06900
Cl2315     Cl  0.75310967  0.99656371  0.89960187    -0.49900
C2316       C  0.82736849  0.10675404  0.84824432     0.42600
H2317       H  0.66285834  0.91796366  0.87317417     0.06800
N2318       N  0.82399743  0.91252236  0.86309810    -0.46600
C2319       C  0.55215976  0.38898431  0.68546119     0.42500
N2320       N  0.53383624  0.38550409  0.72526238     0.01400
C2321       C  0.54947742  0.14385416  0.79192825    -0.06500
H2322       H  0.53525724  0.11355439  0.70472084     0.06800
C2323       C  0.92725689  0.23091159  0.71348394    -0.06900
Co2324     Co  0.55250424  0.28662041  0.75326673     0.74200
N2325       N  0.53266731  0.19111810  0.72279987    -0.26100
Co2326     Co  0.00003217  0.18805091  0.75443003     0.74100
C2327       C  0.92749542  0.17652287  0.70473943     0.42600
N2328       N  0.95395915  0.35116999  0.72769568     0.01000
N2329       N  0.96567040  0.19344889  0.72663252     0.01100
N2330       N  0.57723294  0.21506504  0.79192712    -0.46900
H2331       H  0.57994522  0.31751424  0.69431671     0.06800
N2332       N  0.55039918  0.23087942  0.72312589     0.01400
N2333       N  0.96850500  0.19096040  0.78429092     0.01100
C2334       C  0.93407485  0.17197515  0.81014246     0.42700
N2335       N  0.97268474  0.38869226  0.72810657    -0.25500
C2336       C  0.56745495  0.33877617  0.80840224    -0.06400
N2337       N  0.53292708  0.41130603  0.70192167    -0.46600
N2338       N  0.95746776  0.15164843  0.79861397    -0.46800
C2339       C  0.55659070  0.38273245  0.82438990     0.42500
N2340       N  0.55356391  0.22538735  0.77993541     0.01300
N2341       N  0.97414439  0.38502866  0.78862689    -0.25500
N2342       N  0.55198237  0.34650046  0.72473006    -0.26000
N2343       N  0.95515707  0.34800658  0.78790049     0.01000
H2344       H  0.98719363  0.43751062  0.82073411     0.06900
H2345       H  0.91235035  0.24960389  0.80060734     0.06900
N2346       N  0.53629982  0.18476019  0.77933724    -0.26100
N2347       N  0.95037484  0.23698586  0.72753122    -0.25700
N2348       N  0.53658403  0.38177168  0.78560594     0.01400
C2349       C  0.57017540  0.17444745  0.69702016     0.42700
C2350       C  0.97111105  0.41556464  0.70483017    -0.06900
N2351       N  0.95227645  0.23333975  0.78462623    -0.25700
H2352       H  0.91002328  0.25846754  0.71387935     0.06900
N2353       N  0.57230990  0.22228711  0.70819687    -0.46900
H2354       H  0.98454255  0.44715572  0.69874432     0.06900
C2355       C  0.95219747  0.37828114  0.82841033     0.42600
C2356       C  0.56513303  0.34682939  0.70104211    -0.06400
Co2357     Co  0.00356391  0.38754546  0.75744027     0.73800
N2358       N  0.94050727  0.34860298  0.70456017    -0.46600
C2359       C  0.57673120  0.16513671  0.80032946     0.42800
N2360       N  0.53745649  0.40719340  0.80890228    -0.46600
Co2361     Co  0.95295917  0.29328502  0.75690220     0.73900
C2362       C  0.93072895  0.22511506  0.80043915    -0.06900
C2363       C  0.54347353  0.15301919  0.70670503    -0.06500
N2364       N  0.55380807  0.34120547  0.78483811    -0.26000
N2365       N  0.95195333  0.15499047  0.71383495    -0.46800
H2366       H  0.54248090  0.10326926  0.79229652     0.06900
C2367       C  0.97329650  0.40761245  0.81329006    -0.06900
Cl2368     Cl  0.00202221  0.28787125  0.75602103    -0.49900
C2369       C  0.95050962  0.38746256  0.68899810     0.42600
H2370       H  0.58165950  0.30784077  0.81453117     0.06800
N2371       N  0.94210460  0.34240050  0.81105924    -0.46600
C2372       C  0.57078946  0.84137847  0.70328111     0.42500
N2373       N  0.53492162  0.82096591  0.72665401     0.01400
C2374       C  0.52949447  0.59559097  0.80543026    -0.06500
H2375       H  0.51216758  0.58214176  0.68696607     0.06800
C2376       C  0.93106205  0.67398963  0.70171659    -0.06900
Co2377     Co  0.54908777  0.71678466  0.75309485     0.74200
N2378       N  0.52687786  0.62906828  0.71999791    -0.26100
Co2379     Co  0.99664604  0.62416593  0.75049713     0.74100
C2380       C  0.94214026  0.63484990  0.68281891     0.42600
N2381       N  0.95029206  0.78779542  0.72692784     0.01000
N2382       N  0.96541136  0.63284182  0.72051087     0.01100
N2383       N  0.56098947  0.66007249  0.80496068    -0.46900
H2384       H  0.59032586  0.76018834  0.70895946     0.06800
N2385       N  0.54695347  0.66372863  0.72177923     0.01400
N2386       N  0.96701728  0.62654951  0.78146243     0.01100
C2387       C  0.94973197  0.62329345  0.82135540     0.42700
N2388       N  0.96890588  0.82612084  0.72722462    -0.25500
C2389       C  0.57677926  0.77869972  0.79358398    -0.06400
N2390       N  0.54731938  0.86155071  0.71452084    -0.46600
N2391       N  0.96748157  0.59909771  0.80424991    -0.46800
C2392       C  0.57959887  0.83485106  0.79701742     0.42500
N2393       N  0.54758447  0.65771797  0.78180323     0.01300
N2394       N  0.97101387  0.82191222  0.78378590    -0.25500
N2395       N  0.55051944  0.77774912  0.72564241    -0.26000
N2396       N  0.95324299  0.78225242  0.78404087     0.01000
H2397       H  0.96807543  0.90074246  0.80062898     0.06900
H2398       H  0.92335745  0.69732982  0.81436328     0.06900
N2399       N  0.52830846  0.62124414  0.78147320    -0.26100
N2400       N  0.94738495  0.67161665  0.72340281    -0.25700
N2401       N  0.53802581  0.81736768  0.78272375     0.01400
C2402       C  0.54930264  0.63812735  0.68049675     0.42700
C2403       C  0.95767752  0.86835992  0.71447880    -0.06900
N2404       N  0.94997511  0.66729931  0.78286864    -0.25700
H2405       H  0.91484915  0.70284543  0.69929803     0.06900
N2406       N  0.56064275  0.67005841  0.69900162    -0.46900
H2407       H  0.96612184  0.90789554  0.71474373     0.06900
C2408       C  0.93349392  0.83986331  0.80929751     0.42600
C2409       C  0.57258818  0.78641981  0.71050522    -0.06400
Co2410     Co  0.50345472  0.82360546  0.75605577     0.73800
N2411       N  0.92705970  0.80156575  0.71492005    -0.46600
C2412       C  0.55101477  0.62243339  0.82140940     0.42800
N2413       N  0.55457191  0.85684579  0.79035061    -0.46600
Co2414     Co  0.95008743  0.72664664  0.75428600     0.73900
C2415       C  0.93747587  0.66745293  0.80693491    -0.06900
C2416       C  0.52711439  0.60949181  0.69475635    -0.06500
N2417       N  0.55192059  0.77211621  0.78290080    -0.26000
N2418       N  0.96320347  0.61020055  0.69638144    -0.46800
H2419       H  0.51545300  0.56531266  0.81214873     0.06900
C2420       C  0.96012977  0.86092951  0.79928438    -0.06900
Cl2421     Cl  0.99938737  0.72281649  0.75267679    -0.49900
C2422       C  0.92979533  0.85137186  0.70627966     0.42600
H2423       H  0.59294405  0.74948280  0.79187804     0.06800
N2424       N  0.93140067  0.79149066  0.79889003    -0.46600
C2425       C  0.89176082  0.83243573  0.83525894    -0.05800
C2426       C  0.90708427  0.86450760  0.81786926     0.00200
C2427       C  0.89301830  0.90456113  0.80302006    -0.08400
C2428       C  0.86432207  0.91301659  0.80762097    -0.05800
C2429       C  0.84925136  0.87992328  0.82492387     0.00100
C2430       C  0.86309991  0.83731452  0.83769637    -0.08300
C2431       C  0.84854015  0.79518887  0.85397239     0.62000
H2432       H  0.90206170  0.79967016  0.84540977     0.12700
H2433       H  0.85373133  0.94644308  0.79850152     0.12800
C2434       C  0.90810416  0.93790665  0.78253688     0.62300
F2435       F  0.85470002  0.74597278  0.84322505    -0.22900
F2436       F  0.82007161  0.80116832  0.85384186    -0.20200
F2437       F  0.85800504  0.79684755  0.88017255    -0.19900
F2438       F  0.92037748  0.90586407  0.76342085    -0.19900
F2439       F  0.92823797  0.96716813  0.79536332    -0.20300
F2440       F  0.89031191  0.97230928  0.76934480    -0.22900
C2441       C  0.60777573  0.90984466  0.81317045    -0.05800
C2442       C  0.60691343  0.86269680  0.79861364     0.00200
C2443       C  0.63266180  0.84112259  0.78879688    -0.08400
C2444       C  0.65778777  0.86149380  0.79855939    -0.05800
C2445       C  0.65837197  0.90549029  0.81533125     0.00100
C2446       C  0.63303654  0.93284300  0.82068854    -0.08300
C2447       C  0.63139686  0.98601434  0.83450850     0.62000
H2448       H  0.58850102  0.92822005  0.81953004     0.12700
H2449       H  0.67714003  0.84151650  0.79384405     0.12800
C2450       C  0.63533693  0.79717494  0.76818393     0.62300
F2451       F  0.61432663  0.01937090  0.81983880    -0.22900
F2452       F  0.65694899  0.00953244  0.83640195    -0.20200
F2453       F  0.62038609  0.98009321  0.85995310    -0.19900
F2454       F  0.61208139  0.79376998  0.75234254    -0.19900
F2455       F  0.64036922  0.74943426  0.78100326    -0.20300
F2456       F  0.65731946  0.80687670  0.75109447    -0.22900
C2457       C  0.86307807  0.10939825  0.81194693    -0.05800
C2458       C  0.85376999  0.12750563  0.83709164     0.00200
C2459       C  0.87265569  0.15521250  0.85390422    -0.08400
C2460       C  0.90027555  0.16089275  0.84574950    -0.05800
C2461       C  0.90948337  0.14399332  0.82053261     0.00100
C2462       C  0.89050638  0.11862989  0.80308455    -0.08300
C2463       C  0.89918519  0.10315366  0.77493814     0.62000
H2464       H  0.84886641  0.08740449  0.79944188     0.12700
H2465       H  0.91436574  0.18307969  0.85840001     0.12800
C2466       C  0.86468106  0.18140710  0.88026134     0.62300
F2467       F  0.87793952  0.07910413  0.76095295    -0.22900
F2468       F  0.92141503  0.06851038  0.77621551    -0.20200
F2469       F  0.90696948  0.14770993  0.76085380    -0.19900
F2470       F  0.87686885  0.15428672  0.90135442    -0.19900
F2471       F  0.83646609  0.18326681  0.88409251    -0.20300
F2472       F  0.87402305  0.23304565  0.88058247    -0.22900
C2473       C  0.62358638  0.12445006  0.79380704    -0.05800
C2474       C  0.60250644  0.14167515  0.81152624     0.00200
C2475       C  0.60968513  0.15414393  0.83818724    -0.08400
C2476       C  0.63737774  0.14934291  0.84632618    -0.05800
C2477       C  0.65836367  0.12851844  0.82956712     0.00100
C2478       C  0.65141105  0.11637912  0.80250446    -0.08300
C2479       C  0.67301188  0.09592014  0.78288339     0.62000
H2480       H  0.61817143  0.11846618  0.77293112     0.12700
H2481       H  0.64274246  0.16140445  0.86651094     0.12800
C2482       C  0.58795810  0.17393667  0.85790476     0.62300
F2483       F  0.66234469  0.09054388  0.75721735    -0.22900
F2484       F  0.68270163  0.04682298  0.79104378    -0.20200
F2485       F  0.69486021  0.13099207  0.78166795    -0.19900
F2486       F  0.56600096  0.13904878  0.85840603    -0.19900
F2487       F  0.57844880  0.22335969  0.85010677    -0.20300
F2488       F  0.59832648  0.17798935  0.88375200    -0.22900
C2489       C  0.88109315  0.87597188  0.71592343    -0.05800
C2490       C  0.90486398  0.88327564  0.69986752     0.00200
C2491       C  0.90262876  0.91189086  0.67575325    -0.08400
C2492       C  0.87622973  0.92887519  0.66745916    -0.05800
C2493       C  0.85183430  0.91434409  0.68135190     0.00100
C2494       C  0.85447497  0.89155232  0.70715682    -0.08300
C2495       C  0.82945653  0.88231670  0.72490987     0.62000
H2496       H  0.88331434  0.85478980  0.73473593     0.12700
H2497       H  0.87462457  0.95140052  0.64908824     0.12800
C2498       C  0.92764287  0.92040088  0.65783250     0.62300
F2499       F  0.83678727  0.86033867  0.74941705    -0.22900
F2500       F  0.81126777  0.84832628  0.71231215    -0.20200
F2501       F  0.81626932  0.93012706  0.72989692    -0.19900
F2502       F  0.92067760  0.94596938  0.63415895    -0.19900
F2503       F  0.93943882  0.87210063  0.65115726    -0.20300
F2504       F  0.94696338  0.95070745  0.67120265    -0.22900
C2505       C  0.63487842  0.86267983  0.66407858    -0.05800
C2506       C  0.65286255  0.88743377  0.68258602     0.00200
C2507       C  0.64171283  0.90439635  0.70761913    -0.08400
C2508       C  0.61342659  0.89350868  0.71335389    -0.05800
C2509       C  0.59594169  0.86925554  0.69433326     0.00100
C2510       C  0.60664816  0.85569210  0.66900535    -0.08300
C2511       C  0.58802678  0.83290143  0.64727695     0.62000
H2512       H  0.64303165  0.84941213  0.64494327     0.12700
H2513       H  0.60504535  0.90186579  0.73309192     0.12800
C2514       C  0.65925662  0.93302164  0.72818541     0.62300
F2515       F  0.60106037  0.83145431  0.62256381    -0.22900
F2516       F  0.56450302  0.86408222  0.64470727    -0.20200
F2517       F  0.58029150  0.78193360  0.65389494    -0.19900
F2518       F  0.66979227  0.97888130  0.71718077    -0.19900
F2519       F  0.68085671  0.90061547  0.73630343    -0.20300
F2520       F  0.64408181  0.94699751  0.75071034    -0.22900
C2521       C  0.87320372  0.09233949  0.66832592    -0.05800
C2522       C  0.84818392  0.11623174  0.67718820     0.00200
C2523       C  0.84956111  0.15452816  0.69773512    -0.08400
C2524       C  0.87577452  0.16897635  0.70789750    -0.05800
C2525       C  0.90099220  0.14869834  0.69734487     0.00100
C2526       C  0.89953795  0.10884809  0.67755930    -0.08300
C2527       C  0.92570174  0.08638044  0.66512910     0.62000
H2528       H  0.87212982  0.06185435  0.65311499     0.12700
H2529       H  0.87660699  0.19820887  0.72371262     0.12800
C2530       C  0.82355162  0.18219772  0.70776624     0.62300
F2531       F  0.91993563  0.05007149  0.64516985    -0.22900
F2532       F  0.94137087  0.06136735  0.68468918    -0.20200
F2533       F  0.94096927  0.12682322  0.65380163    -0.19900
F2534       F  0.80643154  0.14574836  0.71999395    -0.19900
F2535       F  0.80967942  0.20546672  0.68642014    -0.20300
F2536       F  0.82945600  0.22150167  0.72623328    -0.22900
C2537       C  0.63683214  0.09329798  0.69117914    -0.05800
C2538       C  0.65317660  0.12949537  0.67679460     0.00200
C2539       C  0.64076673  0.17640487  0.66691354    -0.08400
C2540       C  0.61256304  0.18555692  0.67163393    -0.05800
C2541       C  0.59620961  0.15047946  0.68664703     0.00100
C2542       C  0.60844271  0.10302997  0.69651324    -0.08300
C2543       C  0.59181438  0.06258484  0.71206469     0.62000
H2544       H  0.64620672  0.05611597  0.69705366     0.12700
H2545       H  0.60305326  0.22167916  0.66411506     0.12800
C2546       C  0.65692807  0.21591324  0.65028399     0.62300
F2547       F  0.60773322  0.01908457  0.71926883    -0.22900
F2548       F  0.57023589  0.04478668  0.69628298    -0.20200
F2549       F  0.58144420  0.08501006  0.73533255    -0.19900
F2550       F  0.66015940  0.19653575  0.62454000    -0.19900
F2551       F  0.68265913  0.22428267  0.66168970    -0.20300
F2552       F  0.64340373  0.26437148  0.64870911    -0.22900
C2553       C  0.81914554  0.72822250  0.52843763    -0.05800
C2554       C  0.81386971  0.69647336  0.55109389     0.00200
C2555       C  0.81225206  0.72153678  0.57658205    -0.08400
C2556       C  0.80877932  0.77725470  0.57756370    -0.05800
C2557       C  0.81092636  0.80862711  0.55434441     0.00100
C2558       C  0.81999325  0.78416079  0.53032200    -0.08300
C2559       C  0.83463421  0.81614371  0.50879706     0.62000
H2560       H  0.82384072  0.70886326  0.50955541     0.12700
H2561       H  0.80446909  0.79671800  0.59649770     0.12800
C2562       C  0.81479554  0.69009774  0.60254318     0.62300
F2563       F  0.84245882  0.78528230  0.98618947    -0.22900
F2564       F  0.85929581  0.83448612  0.51926133    -0.20200
F2565       F  0.81882185  0.85752984  0.99937360    -0.19900
F2566       F  0.84116967  0.66874889  0.60428751    -0.19900
F2567       F  0.79578013  0.64945825  0.60328485    -0.20300
F2568       F  0.81055427  0.72174330  0.62489177    -0.22900
C2569       C  0.77732739  0.28483307  0.53834981    -0.05800
C2570       C  0.79533658  0.30839708  0.55692386     0.00200
C2571       C  0.80984740  0.27488525  0.57506119    -0.08400
C2572       C  0.80725922  0.21965542  0.57233940    -0.05800
C2573       C  0.79086201  0.19588226  0.55227758    -0.04100
C2574       C  0.77537009  0.22983985  0.53481170    -0.08300
C2575       C  0.75699791  0.21093470  0.51198564     0.62000
H2576       H  0.76469518  0.30988538  0.52582099     0.12700
H2577       H  0.81904679  0.19444913  0.58576624     0.12800
C2578       C  0.82912451  0.29585899  0.59654879     0.62300
F2579       F  0.74954043  0.25155133  0.49468022    -0.22900
F2580       F  0.73304688  0.18976692  0.52195890    -0.20200
F2581       F  0.77176977  0.17301136  0.99725264    -0.19900
F2582       F  0.81717172  0.33839498  0.60977309    -0.19900
F2583       F  0.85360524  0.31088426  0.58460837    -0.20300
F2584       F  0.83531073  0.25777762  0.61572491    -0.22900
C2585       C  0.80602458  0.75948584  0.92136275    -0.05800
C2586       C  0.79409255  0.78557126  0.94370369     0.00200
C2587       C  0.78030150  0.75316716  0.96323581    -0.08400
C2588       C  0.78172845  0.69787167  0.96056711    -0.05800
C2589       C  0.79677382  0.67293358  0.94014866     0.00100
C2590       C  0.80646987  0.70398807  0.91868336    -0.08300
C2591       C  0.81522310  0.68049398  0.89195127     0.62000
H2592       H  0.81412294  0.78250567  0.90498462     0.12700
H2593       H  0.77133861  0.67351547  0.97522922     0.12800
C2594       C  0.76299189  0.77238457  0.98677804     0.62300
F2595       F  0.80341555  0.70930155  0.87125686    -0.22900
F2596       F  0.80636978  0.62890314  0.88883163    -0.20200
F2597       F  0.84372792  0.68218045  0.88964638    -0.19900
F2598       F  0.73549904  0.77265411  0.97967584    -0.19900
F2599       F  0.77155514  0.82092942  0.49662604    -0.20300
F2600       F  0.76396180  0.73881026  0.50939071    -0.22900
C2601       C  0.80269983  0.20744051  0.93220881    -0.05800
C2602       C  0.81026588  0.17858388  0.95525756     0.00200
C2603       C  0.82200620  0.20623219  0.97714435    -0.08400
C2604       C  0.82048839  0.26225143  0.97749766    -0.05800
C2605       C  0.81219468  0.29106721  0.95462638     0.00100
C2606       C  0.80607196  0.26295079  0.93073934    -0.08300
C2607       C  0.80454408  0.29085640  0.90362023     0.62000
H2608       H  0.79530824  0.18579577  0.91489699     0.12700
H2609       H  0.82773827  0.28396151  0.99486324     0.12800
C2610       C  0.83838762  0.17679700  0.99845217     0.62300
F2611       F  0.79497812  0.25764216  0.88357974    -0.22900
F2612       F  0.83067773  0.30729749  0.89643994    -0.20200
F2613       F  0.78723247  0.33465240  0.90471665    -0.19900
F2614       F  0.86269109  0.15804551  0.98719049    -0.19900
F2615       F  0.82517414  0.13342453  0.50791542    -0.20300
F2616       F  0.84412682  0.21038205  0.52054494    -0.22900
C2617       C  0.93511262  0.56562676  0.85810664    -0.05800
C2618       C  0.94774211  0.61255638  0.85062257     0.00200
C2619       C  0.95655701  0.64842845  0.87088776    -0.08400
C2620       C  0.95028659  0.63739478  0.89819179    -0.05800
C2621       C  0.93552245  0.59193244  0.90557567     0.00100
C2622       C  0.92850078  0.55480846  0.88496825    -0.08300
C2623       C  0.91287190  0.50437879  0.89060075     0.62000
H2624       H  0.92881128  0.53862909  0.84235298     0.12700
H2625       H  0.95540383  0.66574243  0.91370085     0.12800
C2626       C  0.97219976  0.69834893  0.86372466     0.62300
F2627       F  0.91626194  0.46793032  0.87020287    -0.22900
F2628       F  0.88483476  0.51469221  0.89301369    -0.20200
F2629       F  0.92284527  0.48225635  0.91387268    -0.19900
F2630       F  0.95459380  0.73413747  0.85134186    -0.19900
F2631       F  0.99381919  0.68626283  0.84653128    -0.20300
F2632       F  0.98318363  0.72234081  0.88629998    -0.22900
C2633       C  0.92377135  0.66484274  0.60814445    -0.05800
C2634       C  0.93174479  0.61763617  0.59555910     0.00200
C2635       C  0.94499260  0.57839256  0.61134777    -0.08400
C2636       C  0.94501005  0.58353524  0.63971713    -0.05800
C2637       C  0.93741373  0.63113326  0.65265142     0.00100
C2638       C  0.92805186  0.67402966  0.63587714    -0.08300
C2639       C  0.92226108  0.72970596  0.64606116     0.62000
H2640       H  0.91330135  0.69445280  0.59598709     0.12700
H2641       H  0.95285505  0.55120512  0.65192822     0.12800
C2642       C  0.96091920  0.53377577  0.59805383     0.62300
F2643       F  0.92036490  0.76584076  0.62517952    -0.22900
F2644       F  0.94357044  0.74648725  0.66247240    -0.20200
F2645       F  0.89726198  0.73090856  0.65953708    -0.19900
F2646       F  0.98092665  0.55487044  0.58137506    -0.19900
F2647       F  0.94343072  0.50350722  0.58288061    -0.20300
F2648       F  0.97395112  0.50121172  0.61659914    -0.22900
C2649       C  0.96781914  0.39253549  0.87641112    -0.05800
C2650       C  0.94761015  0.37440844  0.85816940     0.00200
C2651       C  0.92323848  0.35132051  0.86876365    -0.08400
C2652       C  0.92123232  0.34270463  0.89650670    -0.05800
C2653       C  0.93901738  0.36741555  0.91488532     0.00100
C2654       C  0.96334146  0.39183146  0.90469138    -0.08300
C2655       C  0.98402542  0.41835743  0.92307463     0.62000
H2656       H  0.98649866  0.40978293  0.86833168     0.12700
H2657       H  0.90288464  0.32340469  0.90425455     0.12800
C2658       C  0.89739788  0.34242984  0.85196955     0.62300
F2659       F  0.97215524  0.46172633  0.93556930    -0.22900
F2660       F  0.00673208  0.43609271  0.90897022    -0.20200
F2661       F  0.99316139  0.38264772  0.94222147    -0.19900
F2662       F  0.89868830  0.29312557  0.84028580    -0.19900
F2663       F  0.89451707  0.38095890  0.83236579    -0.20300
F2664       F  0.87375876  0.34497915  0.86761309    -0.22900
C2665       C  0.92535293  0.43000286  0.65266396    -0.05800
C2666       C  0.94481681  0.39231836  0.65995970     0.00200
C2667       C  0.95639846  0.35852119  0.64012984    -0.08400
C2668       C  0.94808288  0.36480272  0.61297939    -0.05800
C2669       C  0.92740111  0.40150899  0.60552561     0.00100
C2670       C  0.91596840  0.43533740  0.62621223    -0.08300
C2671       C  0.89230029  0.47484960  0.62297470     0.62000
H2672       H  0.91632268  0.45416955  0.66845763     0.12700
H2673       H  0.95628609  0.33854361  0.59769386     0.12800
C2674       C  0.97617764  0.31426470  0.64796850     0.62300
F2675       F  0.89563978  0.51797665  0.63976581    -0.22900
F2676       F  0.86760562  0.45076492  0.62966125    -0.20200
F2677       F  0.89075935  0.49463696  0.59754173    -0.19900
F2678       F  0.96228849  0.27730210  0.66330778    -0.19900
F2679       F  0.99783665  0.33437942  0.66281538    -0.20300
F2680       F  0.48699133  0.29581554  0.62639321    -0.22900
C2681       C  0.67521455  0.71565677  0.96208738    -0.05800
C2682       C  0.69225312  0.68407984  0.94564889     0.00200
C2683       C  0.70889130  0.70907091  0.92599074    -0.08400
C2684       C  0.70979741  0.76519675  0.92498432    -0.05800
C2685       C  0.69355352  0.79672504  0.94226084     0.00100
C2686       C  0.67519340  0.77157012  0.96018522    -0.08300
C2687       C  0.65583645  0.80453878  0.97720588     0.62000
H2688       H  0.66200963  0.69614436  0.97657568     0.12700
H2689       H  0.72334008  0.78485753  0.91085773     0.12800
C2690       C  0.72473366  0.67615809  0.90566130     0.62300
F2691       F  0.66909908  0.83648022  0.49475963    -0.22900
F2692       F  0.63834389  0.83589348  0.46072278    -0.20200
F2693       F  0.63813307  0.77324919  0.99204598    -0.19900
F2694       F  0.70611192  0.64876801  0.88987240    -0.19900
F2695       F  0.74179408  0.64019544  0.91863971    -0.20300
F2696       F  0.74089795  0.70724796  0.88906672    -0.22900
C2697       C  0.71458206  0.21177008  0.94806282    -0.05800
C2698       C  0.69188382  0.18083992  0.95524398     0.00200
C2699       C  0.66586030  0.20600280  0.95927389    -0.08400
C2700       C  0.66448974  0.26220647  0.95946746    -0.05800
C2701       C  0.68798620  0.29305413  0.95384580     0.00100
C2702       C  0.71229956  0.26708244  0.94550659    -0.08300
C2703       C  0.73443285  0.29684275  0.93080171     0.62000
H2704       H  0.73390478  0.19203993  0.94302542     0.12700
H2705       H  0.64511482  0.28229200  0.96369883     0.12800
C2706       C  0.63987902  0.17339973  0.96287649     0.62300
F2707       F  0.74991596  0.26202712  0.91559444    -0.22900
F2708       F  0.75109925  0.32279588  0.94898693    -0.20200
F2709       F  0.72280775  0.33328160  0.91325045    -0.19900
F2710       F  0.64289527  0.14006698  0.98475524    -0.19900
F2711       F  0.63539697  0.14328501  0.94010488    -0.20300
F2712       F  0.61671060  0.20496234  0.96688289    -0.22900
C2713       C  0.67070444  0.71684426  0.54704139    -0.05800
C2714       C  0.69491740  0.68877201  0.55411829     0.00200
C2715       C  0.71721118  0.71704218  0.56516702    -0.08400
C2716       C  0.71703296  0.77273441  0.56384671    -0.05800
C2717       C  0.69294615  0.80075343  0.55684714     0.00100
C2718       C  0.66858133  0.77219660  0.55086554    -0.08300
C2719       C  0.64022372  0.79851082  0.55210869     0.62000
H2720       H  0.65277546  0.69456244  0.54070744     0.12700
H2721       H  0.73495610  0.79485605  0.57042032     0.12800
C2722       C  0.73932937  0.68857500  0.58096991     0.62300
F2723       F  0.61953039  0.76503629  0.54332004    -0.22900
F2724       F  0.63930548  0.84411849  0.53680299    -0.20200
F2725       F  0.63458321  0.81170604  0.57845465    -0.19900
F2726       F  0.75475088  0.65707711  0.56394581    -0.19900
F2727       F  0.72722808  0.65715128  0.60042966    -0.20300
F2728       F  0.75634789  0.72404388  0.59395478    -0.22900
C2729       C  0.70947218  0.27289907  0.57289525    -0.05800
C2730       C  0.68961079  0.30023871  0.55764591     0.00200
C2731       C  0.66888138  0.27115474  0.54388828    -0.08400
C2732       C  0.67039231  0.21534851  0.54386629    -0.05800
C2733       C  0.69037713  0.18794013  0.55888468     0.00100
C2734       C  0.70930179  0.21711245  0.57498614    -0.08300
C2735       C  0.72798480  0.19023133  0.59554599     0.62000
H2736       H  0.72434986  0.29586558  0.58416936     0.12700
H2737       H  0.65537013  0.19246149  0.53275822     0.12800
C2738       C  0.64456937  0.29859368  0.53024163     0.62300
F2739       F  0.71209715  0.16864485  0.61571462    -0.22900
F2740       F  0.74630195  0.22541539  0.60717396    -0.20200
F2741       F  0.74317982  0.15024275  0.58391006    -0.19900
F2742       F  0.65388000  0.33610344  0.51223440    -0.19900
F2743       F  0.62814437  0.32293624  0.54934684    -0.20300
F2744       F  0.62809341  0.26320354  0.51646575    -0.22900
C2745       C  0.53657873  0.59827128  0.86893795    -0.05800
C2746       C  0.55602325  0.62204137  0.85145232     0.00200
C2747       C  0.57972242  0.64616182  0.86328805    -0.08400
C2748       C  0.58274416  0.64574594  0.89131315    -0.05800
C2749       C  0.56546576  0.61668533  0.90829971     0.00100
C2750       C  0.54108296  0.59464021  0.89720661    -0.08300
C2751       C  0.51992426  0.56831184  0.91506340     0.62000
H2752       H  0.51805211  0.58148805  0.86029940     0.12700
H2753       H  0.60060758  0.66456037  0.90027820     0.12800
C2754       C  0.60269760  0.67159488  0.84707407     0.62300
F2755       F  0.49763614  0.54975697  0.90043847    -0.22900
F2756       F  0.51016050  0.60463403  0.93362065    -0.20200
F2757       F  0.53183407  0.52605889  0.92848725    -0.19900
F2758       F  0.59343149  0.71984803  0.83779158    -0.19900
F2759       F  0.61058040  0.63934004  0.82592900    -0.20300
F2760       F  0.62619623  0.68070865  0.86232205    -0.22900
C2761       C  0.58352491  0.65508875  0.64445126    -0.05800
C2762       C  0.55610989  0.64336637  0.65115086     0.00200
C2763       C  0.53648788  0.64225612  0.62984145    -0.08400
C2764       C  0.54585952  0.63767502  0.60295542    -0.05800
C2765       C  0.57395723  0.64245850  0.59666203     0.00100
C2766       C  0.59220420  0.65870388  0.61759967    -0.08300
C2767       C  0.62082606  0.68079298  0.61279522     0.62000
H2768       H  0.59839678  0.66236046  0.66034512     0.12700
H2769       H  0.53142011  0.62773479  0.58711598     0.12800
C2770       C  0.50598844  0.64219590  0.63511528     0.62300
F2771       F  0.62321773  0.72895235  0.62574608    -0.22900
F2772       F  0.62588494  0.68943523  0.58589602    -0.20200
F2773       F  0.64053588  0.64654621  0.62322846    -0.19900
F2774       F  0.00041904  0.68019430  0.65356688    -0.19900
F2775       F  0.99879718  0.59277824  0.64404038    -0.20300
F2776       F  0.99189239  0.65317495  0.61156435    -0.22900
C2777       C  0.56716669  0.43876222  0.89471809    -0.05800
C2778       C  0.56239149  0.39412337  0.91108666     0.00200
C2779       C  0.55418443  0.34625015  0.89870865    -0.08400
C2780       C  0.55099730  0.34467407  0.87045313    -0.05800
C2781       C  0.55775017  0.38828218  0.85416957     0.00100
C2782       C  0.56638184  0.43576119  0.86646631    -0.08300
C2783       C  0.57733729  0.48107017  0.84966635     0.62000
H2784       H  0.57453915  0.47457721  0.90424140     0.12700
H2785       H  0.54449939  0.30848441  0.86073284     0.12800
C2786       C  0.55053611  0.29637162  0.91522539     0.62300
F2787       F  0.58782711  0.52134453  0.86542305    -0.22900
F2788       F  0.55633089  0.50140561  0.83386191    -0.20200
F2789       F  0.59851413  0.46289931  0.83330375    -0.19900
F2790       F  0.03435438  0.30667876  0.93906236    -0.19900
F2791       F  0.57563670  0.28163620  0.92646386    -0.20300
F2792       F  0.04252137  0.25531447  0.90315668    -0.22900
C2793       C  0.55708003  0.34488356  0.64064184    -0.05800
C2794       C  0.55221154  0.39185448  0.65530122     0.00200
C2795       C  0.54862966  0.43968337  0.64081036    -0.08400
C2796       C  0.55207483  0.43957107  0.61259771    -0.05800
C2797       C  0.55937131  0.39350784  0.59848609     0.00100
C2798       C  0.56041089  0.34487481  0.61251885    -0.08300
C2799       C  0.56550641  0.29218578  0.59877090     0.62000
H2800       H  0.55864996  0.30744919  0.65120631     0.12700
H2801       H  0.55148757  0.47649772  0.60149507     0.12800
C2802       C  0.54291628  0.49132483  0.65501468     0.62300
F2803       F  0.59047282  0.27110292  0.60740595    -0.22900
F2804       F  0.56605598  0.29650983  0.57107452    -0.20200
F2805       F  0.54448735  0.25766187  0.60551194    -0.19900
F2806       F  0.56257372  0.49999868  0.67471020    -0.19900
F2807       F  0.01244527  0.48098013  0.66341972    -0.20300
F2808       F  0.04059139  0.52730135  0.63687722    -0.22900
loop_ 
_geom_bond_atom_site_label_1 
_geom_bond_atom_site_label_2 
_geom_bond_distance 
_geom_bond_site_symmetry_2 
_ccdc_geom_bond_type 
C1           N19   1.355       .  A
C1           C38   1.456       .  S
C1          C624   1.486       .  S
N2           N19   1.329       .  A
N2           N24   1.316       .  A
N2         Co741   2.111       .  S
C3           N28   1.364       .  A
C3           C41   1.495       .  S
C3           H48   1.081       .  S
H4           C45   1.081       .  S
C5           N29   1.328       .  A
C5            C9   1.445       .  S
C5           H34   1.082       .  S
Co6          N24   2.070       .  S
Co6          N14   2.072       .  S
Co6          N46   2.070       .  S
Co6          N22   2.054       .  S
Co6         Cl50   2.395       .  S
N7           C45   1.354       .  A
N7           N14   1.325       .  A
N7           Co8   2.139       .  S
Co8          N28   2.156       .  S
Co8         N713   2.138   1_554  S
Co8         N717   2.147   1_554  S
Co8         Cl50   2.535       .  S
C9           N47   1.368       .  A
C9          C672   1.490       .  S
N10          N17   1.314       .  A
N10          N40   1.326       .  A
N10         Co43   2.078       .  S
N11          N29   1.321       .  A
N11          N47   1.335       .  A
N11        Co710   2.139       .  S
N12          C41   1.331       .  A
N12          N22   1.312       .  A
H13          C38   1.081       .  S
N14          N35   1.319       .  A
N15          N33   1.322       .  A
N15          N20   1.342       .  A
N15        Co710   2.142       .  S
C16          N20   1.370       .  A
C16          C44   1.442       .  S
C16         C643   1.507       .  S
N17          C32   1.348       .  A
N17         Co39   2.093       .  S
C18          N46   1.337       .  A
C18          C21   1.444       .  S
C18          H52   1.036       .  S
C21          N42   1.353       .  A
C21         C608   1.484       .  S
N22          N28   1.323       .  A
N23          C49   1.350       .  A
N23          N25   1.316       .  A
N23         Co39   2.106       .  S
N24          C38   1.340       .  A
N25          N53   1.328       .  A
N25         Co43   2.091       .  S
H26          C49   1.081       .  S
H27          C44   1.082       .  S
N29         Co43   2.059       .  S
N30          N42   1.331       .  A
N30          N46   1.314       .  A
N30        Co741   2.095       .  S
C31          N35   1.341       .  A
C31          C45   1.481       .  S
C31         C691   1.487       .  S
C32          C51   1.464       .  S
C32          H36   1.081       .  S
N33          C44   1.323       .  A
N33         Co43   2.056       .  S
C37          N53   1.350       .  A
C37          C49   1.468       .  S
C37         C576   1.495       .  S
Co39        N704   2.111       .  S
Co39        N732   2.096       .  S
Co39       Cl752   2.502       .  S
N40          C51   1.347       .  A
C41         C659   1.497       .  S
Co43       Cl752   2.372       .  S
Cl50       Co741   2.502       .  S
Cl50       Co745   2.373   1_554  S
C51         C595   1.487       .  S
C54          N72   1.371       .  A
C54          C91   1.440       .  S
C54         C563   1.507       .  S
N55          N72   1.336       .  A
N55          N77   1.320       .  A
N55         Co92   2.154       .  S
C56          N81   1.352       .  A
C56          C94   1.471       .  S
C56         H101   1.070       .  S
H57          C98   1.079       .  S
C58          N82   1.341       .  A
C58          C62   1.448       .  S
C58          H87   1.076       .  S
Co59         N77   2.059       .  S
Co59         N67   2.084       .  S
Co59         N99   2.091       .  S
Co59         N75   2.074       .  S
Co59       Cl103   2.361       .  S
N60          C98   1.331       .  A
N60          N67   1.305       .  A
N60        Co763   2.041   1_554  S
Co61         N64   2.125       .  S
Co61         N68   2.055       .  S
Co61        N762   2.040       .  S
Co61        N783   2.117       .  S
Co61       Cl805   2.512       .  S
C62         N100   1.360       .  A
C62         C499   1.497       .  S
N63          N70   1.319       .  A
N63          N93   1.312       .  A
N63         Co96   2.080       .  S
N64          N82   1.318       .  A
N64         N100   1.334       .  A
N65          C94   1.342       .  A
N65          N75   1.325       .  A
H66          C91   1.075       .  S
N67          N88   1.328       .  A
N68          N86   1.308       .  A
N68          N73   1.320       .  A
C69          N73   1.348       .  A
C69          C97   1.468       .  S
C69         C483   1.488       .  S
N70          C85   1.359       .  A
N70        Co794   2.115       .  S
C71          N99   1.333       .  A
C71          C74   1.444       .  S
C71         H105   1.081       .  S
C74          N95   1.365       .  A
C74         C528   1.497       .  S
N75          N81   1.318       .  A
N76         C102   1.362       .  A
N76          N78   1.324       .  A
N76        Co794   2.159       .  S
N77          C91   1.327       .  A
N78         N106   1.315       .  A
N78         Co96   2.072       .  S
H79         C102   1.081       .  S
H80          C97   1.079       .  S
N81        Co763   2.119   1_554  S
N82         Co96   2.082       .  S
N83          N95   1.336       .  A
N83          N99   1.321       .  A
N83         Co92   2.119       .  S
C84          N88   1.357       .  A
C84          C98   1.465       .  S
C84         C464   1.501       .  S
C85         C104   1.490       .  S
C85          H89   1.080       .  S
N86          C97   1.343       .  A
N86         Co96   2.074       .  S
C90         N106   1.334       .  A
C90         C102   1.493       .  S
C90         C515   1.504       .  S
Co92        N772   2.108   1_554  S
Co92        N778   2.160   1_554  S
Co92       Cl103   2.539       .  S
N93         C104   1.339       .  A
C94         C448   1.499       .  S
Co96       Cl805   2.357       .  S
Cl103      Co763   2.511   1_554  S
Cl103      Co798   2.359   1_554  S
C104        C547   1.505       .  S
C107        N125   1.356       .  A
C107        C144   1.443       .  S
C107        C627   1.485       .  S
N108        N125   1.328       .  A
N108        N130   1.312       .  A
N108       Co145   2.115   1_545  S
C109        N134   1.362       .  A
C109        C147   1.497       .  S
C109        H154   1.079       .  S
H110        C151   1.081       .  S
C111        N135   1.331       .  A
C111        C115   1.450       .  S
C111        H140   1.081       .  S
Co112       N130   2.053       .  S
Co112       N120   2.058       .  S
Co112       N152   2.070   1_545  S
Co112       N128   2.036   1_545  S
Co112      Cl156   2.388       .  S
N113        C151   1.358       .  A
N113        N120   1.324       .  A
N113       Co114   2.139       .  S
Co114       N117   2.152       .  S
Co114       N134   2.154   1_545  S
Co114       N121   2.134   1_545  S
Co114      Cl156   2.527       .  S
C115        N153   1.371       .  A
C115        C416   1.517       .  S
N116        N123   1.310       .  A
N116        N146   1.323       .  A
N116       Co149   2.080       .  S
N117        N135   1.323       .  A
N117        N153   1.339       .  A
N118        C147   1.332       .  A
N118        N128   1.308       .  A
H119        C144   1.077       .  S
N120        N141   1.313       .  A
N121        N139   1.324       .  A
N121        N126   1.336       .  A
C122        N126   1.366       .  A
C122        C150   1.449       .  S
C122        C387   1.503       .  S
N123        C138   1.337       .  A
N123       Co145   2.068   1_545  S
C124        N152   1.340       .  A
C124        C127   1.457       .  S
C124        H158   1.079       .  S
C127        N148   1.355       .  A
C127        C611   1.480       .  S
N128        N134   1.323       .  A
N129        C155   1.343       .  A
N129        N131   1.315       .  A
N129       Co145   2.097       .  S
N130        C144   1.340       .  A
N131        N159   1.329       .  A
N131       Co149   2.087   1_565  S
H132        C155   1.074       .  S
H133        C150   1.081       .  S
N135       Co149   2.067       .  S
N136        N148   1.326       .  A
N136        N152   1.313       .  A
N136       Co145   2.090       .  S
C137        N141   1.330       .  A
C137        C151   1.485       .  S
C137        C432   1.480       .  S
C138        C157   1.467       .  S
C138        H142   1.067       .  S
N139        C150   1.327       .  A
N139       Co149   2.067   1_565  S
C143        N159   1.352       .  A
C143        C155   1.471       .  S
C143        C451   1.496       .  S
Co145      Cl156   2.508   1_565  S
N146        C157   1.356       .  A
C147        C400   1.504       .  S
Co149      Cl156   2.379       .  S
C157        C467   1.506       .  S
C160        N178   1.371       .  A
C160        C197   1.441       .  S
C160        C371   1.506       .  S
N161        N178   1.340       .  A
N161        N183   1.322       .  A
N161       Co198   2.148       .  S
C162        N187   1.345       .  A
C162        C200   1.468       .  S
C162        H207   1.078       .  S
H163        C204   1.076       .  S
C164        N188   1.339       .  A
C164        C168   1.449       .  S
C164        H193   1.077       .  S
Co165       N183   2.051   1_565  S
Co165       N173   2.082   1_565  S
Co165       N205   2.048       .  S
Co165       N181   2.077       .  S
Co165      Cl209   2.371       .  S
N166        C204   1.345       .  A
N166        N173   1.314       .  A
N166       Co167   2.085   1_545  S
Co167       N170   2.129   1_565  S
Co167       N187   2.108       .  S
Co167       N174   2.094       .  S
Co167      Cl209   2.500       .  S
C168        N206   1.364       .  A
C168        C496   1.499       .  S
N169        N176   1.327       .  A
N169        N199   1.316       .  A
N169       Co202   2.069   1_545  S
N170        N188   1.314       .  A
N170        N206   1.333       .  A
N171        C200   1.351       .  A
N171        N181   1.329       .  A
H172        C197   1.082       .  S
N173        N194   1.324       .  A
N174        N192   1.314       .  A
N174        N179   1.329       .  A
C175        N179   1.352       .  A
C175        C203   1.466       .  S
C175        C480   1.509       .  S
N176        C191   1.360       .  A
N176       Co198   2.140       .  S
C177        N205   1.327       .  A
C177        C180   1.438       .  S
C177        H211   1.081       .  S
C180        N201   1.362       .  A
C180        C339   1.482       .  S
N181        N187   1.313       .  A
N182        C208   1.360       .  A
N182        N184   1.325       .  A
N182       Co198   2.135   1_565  S
N183        C197   1.321       .  A
N184        N212   1.311       .  A
N184       Co202   2.046       .  S
H185        C208   1.081       .  S
H186        C203   1.077       .  S
N188       Co202   2.063   1_545  S
N189        N201   1.333       .  A
N189        N205   1.323       .  A
N189       Co198   2.129   1_565  S
C190        N194   1.347       .  A
C190        C204   1.467       .  S
C190        C592   1.484       .  S
C191        C210   1.484       .  S
C191        H195   1.081       .  S
N192        C203   1.341       .  A
N192       Co202   2.083       .  S
C196        N212   1.331       .  A
C196        C208   1.481       .  S
C196        C323   1.481       .  S
Co198      Cl209   2.536   1_545  S
N199        C210   1.336       .  A
C200        C579   1.499       .  S
Co202      Cl209   2.386       .  S
C210        C352   1.493       .  S
C213        N231   1.359       .  A
C213        C250   1.455       .  S
C213        C688   1.509       .  S
N214        N231   1.334       .  A
N214        N236   1.314       .  A
N214      Co1655   2.118       .  S
C215        N240   1.360       .  A
C215        C253   1.483       .  S
C215        H260   1.081       .  S
H216        C257   1.080       .  S
C217        N241   1.330       .  A
C217        C221   1.444       .  S
C217        H246   1.082       .  S
Co218       N236   2.075       .  S
Co218       N226   2.064       .  S
Co218       N258   2.087       .  S
Co218       N234   2.042       .  S
Co218     Cl1666   2.380       .  S
N219        C257   1.358       .  A
N219        N226   1.325       .  A
N219      Co1624   2.133       .  S
Co220       N223   2.165       .  S
Co220       N227   2.135       .  S
Co220      N1623   2.119       .  S
Co220      N1644   2.162       .  S
Co220      Cl262   2.533       .  S
C221        N259   1.373       .  A
C221        C419   1.511       .  S
N222        N229   1.316       .  A
N222        N252   1.323       .  A
N222       Co255   2.064       .  S
N223        N241   1.321       .  A
N223        N259   1.341       .  A
N224        C253   1.330       .  A
N224        N234   1.313       .  A
H225        C250   1.078       .  S
N226        N247   1.311       .  A
N227        N245   1.323       .  A
N227        N232   1.337       .  A
C228        N232   1.365       .  A
C228        C256   1.435       .  S
C228        C355   1.486       .  S
N229        C244   1.346       .  A
N229       Co251   2.086       .  S
C230        N258   1.346       .  A
C230        C233   1.457       .  S
C230        H264   1.078       .  S
C233        N254   1.351       .  A
C233        C675   1.493       .  S
N234        N240   1.325       .  A
N235        C261   1.355       .  A
N235        N237   1.316       .  A
N235       Co251   2.110       .  S
N236        C250   1.340       .  A
N237        N265   1.323       .  A
N237       Co255   2.083       .  S
H238        C261   1.080       .  S
H239        C256   1.079       .  S
N240      Co1624   2.145       .  S
N241       Co255   2.056       .  S
N242        N254   1.329       .  A
N242        N258   1.315       .  A
N242      Co1655   2.096       .  S
C243        N247   1.334       .  A
C243        C257   1.487       .  S
C243        C435   1.490       .  S
C244        C263   1.457       .  S
C244        H248   1.078       .  S
N245        C256   1.324       .  A
N245       Co255   2.051       .  S
C249        N265   1.348       .  A
C249        C261   1.472       .  S
C249        C544   1.507       .  S
Co251      N1618   2.111       .  S
Co251      N1646   2.091       .  S
Co251      Cl262   2.511       .  S
N252        C263   1.341       .  A
C253        C368   1.481       .  S
Co255      Cl262   2.376       .  S
Cl262     Co1622   2.381       .  S
C263        C560   1.473       .  S
C266        N284   1.362       .  A
C266        C303   1.436       .  S
C266        C403   1.481       .  S
N267        N284   1.336       .  A
N267        N289   1.322       .  A
N267       Co304   2.117       .  S
C268        N293   1.359       .  A
C268        C306   1.477       .  S
C268        H313   1.079       .  S
H269        C310   1.075       .  S
C270        N294   1.337       .  A
C270        C274   1.463       .  S
C270        H299   1.072       .  S
Co271       N289   2.063       .  S
Co271       N279   2.056       .  S
Co271       N311   2.041       .  S
Co271       N287   2.071       .  S
Co271     Cl1719   2.368   1_455  S
N272        C310   1.350       .  A
N272        N279   1.313       .  A
N272      Co1677   2.108   1_455  S
Co273       N276   2.128       .  S
Co273       N280   2.113       .  S
Co273      N1676   2.114       .  S
Co273      N1697   2.122       .  S
Co273      Cl315   2.497       .  S
C274        N312   1.366       .  A
C274        C531   1.520       .  S
N275        N282   1.324       .  A
N275        N305   1.316       .  A
N275       Co308   2.059       .  S
N276        N294   1.313       .  A
N276        N312   1.334       .  A
N277        C306   1.347       .  A
N277        N287   1.324       .  A
H278        C303   1.082       .  S
N279        N300   1.322       .  A
N280        N298   1.315       .  A
N280        N285   1.331       .  A
C281        N285   1.354       .  A
C281        C309   1.447       .  S
C281        C512   1.487       .  S
N282        C297   1.356       .  A
N282      Co1708   2.135       .  S
C283        N311   1.325       .  A
C283        C286   1.435       .  S
C283        H317   1.074       .  S
C286        N307   1.363       .  A
C286        C336   1.492       .  S
N287        N293   1.314       .  A
N288        C314   1.356       .  A
N288        N290   1.323       .  A
N288      Co1708   2.123       .  S
N289        C303   1.326       .  A
N290        N318   1.309       .  A
N290       Co308   2.052       .  S
H291        C314   1.080       .  S
H292        C309   1.079       .  S
N293      Co1677   2.130   1_455  S
N294       Co308   2.075       .  S
N295        N307   1.334       .  A
N295        N311   1.320       .  A
N295       Co304   2.120       .  S
C296        N300   1.343       .  A
C296        C310   1.478       .  S
C296        C656   1.502       .  S
C297        C316   1.483       .  S
C297        H301   1.081       .  S
N298        C309   1.340       .  A
N298       Co308   2.063       .  S
C302        N318   1.332       .  A
C302        C314   1.484       .  S
C302        C320   1.484       .  S
Co304      N1686   2.117   1_455  S
Co304      N1692   2.123   1_455  S
Co304     Cl1719   2.525   1_455  S
N305        C316   1.337       .  A
C306        C640   1.517       .  S
Co308      Cl315   2.385       .  S
Cl315     Co1675   2.371       .  S
Cl315     Co1708   2.531       .  S
C316        C384   1.492       .  S
C319        H326   1.086       .  S
C319        C320   1.399       .  A
C319        C324   1.396       .  A
C320        C321   1.422       .  A
C321        C322   1.422       .  A
C321        C328   1.510       .  S
C322        H327   1.083       .  S
C322        C323   1.407       .  A
C323        C324   1.414       .  A
C324        C325   1.512       .  S
C325        F329   1.384       .  S
C325        F330   1.383       .  S
C325        F331   1.382       .  S
C328        F332   1.381       .  S
C328        F333   1.381       .  S
C328        F334   1.381       .  S
C335        H342   1.085       .  S
C335        C336   1.393       .  A
C335        C340   1.402       .  A
C336        C337   1.437       .  A
C337        C338   1.405       .  A
C337        C344   1.517       .  S
C338        H343   1.085       .  S
C338        C339   1.391       .  A
C339        C340   1.428       .  A
C340        C341   1.513       .  S
C341        F345   1.383   1_565  S
C341        F346   1.376   1_565  S
C341        F347   1.383       .  S
C344        F348   1.374       .  S
C344        F349   1.383       .  S
C344        F350   1.383       .  S
C351        H358   1.083       .  S
C351        C352   1.409       .  A
C351        C356   1.423       .  A
C352        C353   1.423       .  A
C353        C354   1.402       .  A
C353        C360   1.518       .  S
C354        H359   1.086       .  S
C354        C355   1.398       .  A
C355        C356   1.420       .  A
C356        C357   1.513       .  S
C357        F361   1.384       .  S
C357        F362   1.380       .  S
C357        F363   1.378       .  S
C360        F364   1.382       .  S
C360        F365   1.378       .  S
C360        F366   1.382       .  S
C367        H374   1.081       .  S
C367        C368   1.411       .  A
C367        C372   1.423       .  A
C368        C369   1.410       .  A
C369        C370   1.402       .  A
C369        C376   1.522       .  S
C370        H375   1.083       .  S
C370        C371   1.411       .  A
C371        C372   1.422       .  A
C372        C373   1.516       .  S
C373        F377   1.385       .  S
C373        F378   1.382       .  S
C373        F379   1.383       .  S
C376        F380   1.383       .  S
C376        F381   1.381       .  S
C376        F382   1.385       .  S
C383        H390   1.083       .  S
C383        C384   1.414       .  A
C383        C388   1.413       .  A
C384        C385   1.409       .  A
C385        C386   1.409       .  A
C385        C392   1.517       .  S
C386        H391   1.080       .  S
C386        C387   1.417       .  A
C387        C388   1.413       .  A
C388        C389   1.516       .  S
C389        F393   1.385       .  S
C389        F394   1.383       .  S
C389        F395   1.383       .  S
C392        F396   1.384       .  S
C392        F397   1.383       .  S
C392        F398   1.381       .  S
C399        H406   1.083       .  S
C399        C400   1.414       .  A
C399        C404   1.401       .  A
C400        C401   1.422       .  A
C401        C402   1.425       .  A
C401        C408   1.515       .  S
C402        H407   1.083       .  S
C402        C403   1.412       .  A
C403        C404   1.408       .  A
C404        C405   1.523       .  S
C405        F409   1.381       .  S
C405        F410   1.383       .  S
C405        F411   1.382       .  S
C408        F412   1.381       .  S
C408        F413   1.382       .  S
C408        F414   1.384       .  S
C415        H422   1.079       .  S
C415        C416   1.420       .  A
C415        C420   1.417       .  A
C416        C417   1.415       .  A
C417        C418   1.416       .  A
C417        C424   1.517       .  S
C418        H423   1.081       .  S
C418        C419   1.417       .  A
C419        C420   1.411       .  A
C420        C421   1.516       .  S
C421        F425   1.385       .  S
C421        F426   1.382       .  S
C421        F427   1.383       .  S
C424        F428   1.382       .  S
C424        F429   1.383       .  S
C424        F430   1.385       .  S
C431        H438   1.081       .  S
C431        C432   1.407       .  A
C431        C436   1.417       .  A
C432        C433   1.415       .  A
C433        C434   1.404       .  A
C433        C440   1.519       .  S
C434        H439   1.084       .  S
C434        C435   1.408       .  A
C435        C436   1.419       .  A
C436        C437   1.514       .  S
C437        F441   1.383       .  S
C437        F442   1.382       .  S
C437        F443   1.381       .  S
C440        F444   1.381       .  S
C440        F445   1.383       .  S
C440        F446   1.385       .  S
C447        H454   1.083       .  S
C447        C448   1.408       .  A
C447        C452   1.418       .  A
C448        C449   1.420       .  A
C449        C450   1.415       .  A
C449        C456   1.520       .  S
C450        H455   1.083       .  S
C450        C451   1.403       .  A
C451        C452   1.415       .  A
C452        C453   1.519       .  S
C453        F458   1.383       .  S
C453       F1159   1.384   1_554  S
C453       F1161   1.380   1_554  S
C456        F460   1.381       .  S
C456        F461   1.383       .  S
C456        F462   1.384       .  S
F457       C1155   1.385       .  S
F459       C1155   1.380       .  S
C463        H470   1.075       .  S
C463        C464   1.403       .  A
C463        C468   1.404       .  A
C464        C465   1.418       .  A
C465        C466   1.408       .  A
C465        C472   1.515       .  S
C466        H471   1.082       .  S
C466        C467   1.411       .  A
C467        C468   1.429       .  A
C468        C469   1.520       .  S
C469        F473   1.383   1_554  S
C469        F474   1.371       .  S
C469       F1177   1.368   1_554  S
C472        F476   1.383       .  S
C472        F477   1.378       .  S
C472        F478   1.385       .  S
F475       C1171   1.368       .  S
C479        H486   1.076       .  S
C479        C480   1.414       .  A
C479        C484   1.408       .  A
C480        C481   1.431       .  A
C481        C482   1.403       .  A
C481        C488   1.517       .  S
C482        H487   1.076       .  S
C482        C483   1.399       .  A
C483        C484   1.408       .  A
C484        C485   1.517       .  S
C485        F489   1.381       .  S
C485        F490   1.382       .  S
C485        F491   1.382       .  S
C488        F492   1.369       .  S
C488       F1195   1.362       .  S
C488       F1196   1.385       .  S
F493       C1190   1.362       .  S
F494       C1190   1.384   1_554  S
C495        H502   1.082       .  S
C495        C496   1.405       .  A
C495        C500   1.413       .  A
C496        C497   1.416       .  A
C497        C498   1.419       .  A
C497        C504   1.515       .  S
C498        H503   1.083       .  S
C498        C499   1.410       .  A
C499        C500   1.418       .  A
C500        C501   1.522       .  S
C501        F505   1.384       .  S
C501        F506   1.378       .  S
C501        F507   1.383       .  S
C504        F508   1.383       .  S
C504       F1211   1.378       .  S
C504       F1212   1.384       .  S
F509       C1206   1.378   1_554  S
F510       C1206   1.384   1_554  S
C511        H518   1.084       .  S
C511        C512   1.388       .  A
C511        C516   1.402       .  A
C512        C513   1.424       .  A
C513        C514   1.420       .  A
C513        C520   1.515       .  S
C514        H519   1.083       .  S
C514        C515   1.403       .  A
C515        C516   1.433       .  A
C516        C517   1.510       .  S
C517        F521   1.380       .  S
C517        F522   1.383       .  S
C517        F523   1.369       .  S
C520        F524   1.381       .  S
C520        F525   1.383       .  S
C520        F526   1.384       .  S
C527        H534   1.084       .  S
C527        C528   1.398       .  A
C527        C532   1.414       .  A
C528        C529   1.416       .  A
C529        C530   1.419       .  A
C529        C536   1.514       .  S
C530        H535   1.083       .  S
C530        C531   1.410       .  A
C531        C532   1.437       .  A
C532        C533   1.519       .  S
C533        F537   1.385       .  S
C533        F538   1.382       .  S
C533        F539   1.382       .  S
C536        F540   1.383       .  S
C536        F541   1.369       .  S
C536        F542   1.385       .  S
C543        H550   1.082       .  S
C543        C544   1.412       .  A
C543        C548   1.426       .  A
C544        C545   1.419       .  A
C545        C546   1.405       .  A
C545        C552   1.519       .  S
C546        H551   1.085       .  S
C546        C547   1.407       .  A
C547        C548   1.423       .  A
C548        C549   1.514       .  S
C549        F553   1.381       .  S
C549        F554   1.380       .  S
C549        F555   1.381       .  S
C552        F556   1.376       .  S
C552        F557   1.384       .  S
C552        F558   1.381       .  S
C559        H566   1.085       .  S
C559        C560   1.381       .  A
C559        C564   1.398       .  A
C560        C561   1.416       .  A
C561        C562   1.416       .  A
C561        C568   1.514       .  S
C562        H567   1.083       .  S
C562        C563   1.406       .  A
C563        C564   1.446       .  A
C564        C565   1.521       .  S
C565        F569   1.385       .  S
C565        F570   1.383       .  S
C565        F571   1.365       .  S
C568        F572   1.382       .  S
C568        F573   1.378       .  S
C568       F1978   1.384       .  S
F574       C1972   1.384       .  S
C575        H582   1.083       .  S
C575        C576   1.404       .  A
C575        C580   1.415       .  A
C576        C577   1.416       .  A
C577        C578   1.419       .  A
C577        C584   1.514       .  S
C578        H583   1.083       .  S
C578        C579   1.409       .  A
C579        C580   1.413       .  A
C580        C581   1.507       .  S
C581        F587   1.382       .  S
C581       F1287   1.381       .  S
C581       F1288   1.383       .  S
C584        F588   1.383       .  S
C584        F589   1.381       .  S
C584        F590   1.384       .  S
F585       C1283   1.381       .  S
F586       C1283   1.384       .  S
C591        H598   1.084       .  S
C591        C592   1.399       .  A
C591        C596   1.409       .  A
C592        C593   1.415       .  A
C593        C594   1.415       .  A
C593        C600   1.515       .  S
C594        H599   1.082       .  S
C594        C595   1.406       .  A
C595        C596   1.406       .  A
C596        C597   1.504       .  S
C597        F601   1.378       .  S
C597        F602   1.380       .  S
C597        F603   1.384       .  S
C600        F604   1.382       .  S
C600        F605   1.382       .  S
C600        F606   1.383       .  S
C607        H614   1.083       .  S
C607        C608   1.408       .  A
C607        C612   1.415       .  A
C608        C609   1.404       .  A
C609        C610   1.405       .  A
C609        C616   1.502       .  S
C610        H615   1.084       .  S
C610        C611   1.399       .  A
C611        C612   1.417       .  A
C612        C613   1.520       .  S
C613        F617   1.384       .  S
C613        F618   1.381       .  S
C613        F619   1.379       .  S
C616        F620   1.377       .  S
C616        F621   1.384       .  S
C616        F622   1.379       .  S
C623        H630   1.083       .  S
C623        C624   1.401       .  A
C623        C628   1.412       .  A
C624        C625   1.421       .  A
C625        C626   1.408       .  A
C625        C632   1.519       .  S
C626        H631   1.081       .  S
C626        C627   1.397       .  A
C627        C628   1.425       .  A
C628        C629   1.521       .  S
C629        F633   1.379       .  S
C629        F634   1.385       .  S
C629        F635   1.373       .  S
C632        F636   1.380       .  S
C632        F637   1.377       .  S
C632        F638   1.381       .  S
C639        H646   1.082       .  S
C639        C640   1.419       .  A
C639        C644   1.430       .  A
C640        C641   1.425       .  A
C641        C642   1.403       .  A
C641        C648   1.520       .  S
C642        H647   1.084       .  S
C642        C643   1.402       .  A
C643        C644   1.419       .  A
C644        C645   1.514       .  S
C645        F649   1.383   1_455  S
C645        F650   1.383       .  S
C645        F651   1.381       .  S
C648        F652   1.375       .  S
C648        F653   1.384       .  S
C648        F654   1.385       .  S
C655        H662   1.085       .  S
C655        C656   1.396       .  A
C655        C660   1.401       .  A
C656        C657   1.423       .  A
C657        C658   1.417       .  A
C657        C664   1.492       .  S
C658        H663   1.083       .  S
C658        C659   1.397       .  A
C659        C660   1.427       .  A
C660        C661   1.511       .  S
C661        F665   1.383       .  S
C661        F666   1.380       .  S
C661        F667   1.382       .  S
C664       F2072   1.384       .  S
C664       F2073   1.367   1_455  S
C664       F2074   1.384   1_455  S
F668       C2068   1.383       .  S
F669       C2068   1.374       .  S
F670       C2068   1.384       .  S
C671        H678   1.083       .  S
C671        C672   1.409       .  A
C671        C676   1.409       .  A
C672        C673   1.415       .  A
C673        C674   1.417       .  A
C673        C680   1.515       .  S
C674        H679   1.082       .  S
C674        C675   1.409       .  A
C675        C676   1.411       .  A
C676        C677   1.513       .  S
C677        F681   1.382       .  S
C677        F682   1.379       .  S
C677        F683   1.383       .  S
C680        F685   1.384       .  S
C680       F2088   1.382       .  S
C680       F2090   1.384       .  S
F684       C2084   1.382       .  S
F686       C2084   1.384       .  S
C687        H694   1.081       .  S
C687        C688   1.413       .  A
C687        C692   1.412       .  A
C688        C689   1.419       .  A
C689        C690   1.416       .  A
C689        C696   1.509       .  S
C690        H695   1.083       .  S
C690        C691   1.402       .  A
C691        C692   1.414       .  A
C692        C693   1.517       .  S
C693        F697   1.381       .  S
C693        F698   1.383       .  S
C693        F699   1.384       .  S
C696        F700   1.383       .  S
C696       F2105   1.378       .  S
C696       F2106   1.379       .  S
F701       C2100   1.380       .  S
F702       C2100   1.377       .  S
C703        N721   1.355       .  A
C703        C740   1.455       .  S
C703       C1326   1.486       .  S
N704        N721   1.329       .  A
N704        N726   1.316       .  A
C705        N730   1.362       .  A
C705        C743   1.494       .  S
C705        H750   1.081       .  S
H706        C747   1.081       .  S
C707        N731   1.327       .  A
C707        C711   1.444       .  S
C707        H736   1.082       .  S
Co708       N726   2.071       .  S
Co708       N716   2.071       .  S
Co708       N748   2.071       .  S
Co708       N724   2.055       .  S
Co708      Cl752   2.396       .  S
N709        C747   1.354       .  A
N709        N716   1.324       .  A
N709       Co710   2.138       .  S
Co710       N730   2.154       .  S
Co710      Cl752   2.535       .  S
C711        N749   1.367       .  A
C711       C1374   1.488       .  S
N712        N719   1.314       .  A
N712        N742   1.326       .  A
N712       Co745   2.076       .  S
N713        N731   1.320       .  A
N713        N749   1.334       .  A
N714        C743   1.332       .  A
N714        N724   1.312       .  A
H715        C740   1.081       .  S
N716        N737   1.319       .  A
N717        N735   1.322       .  A
N717        N722   1.343       .  A
C718        N722   1.371       .  A
C718        C746   1.442       .  S
C718       C1345   1.508       .  S
N719        C734   1.347       .  A
N719       Co741   2.093   1_556  S
C720        N748   1.335       .  A
C720        C723   1.443       .  S
C720        H754   1.063       .  S
C723        N744   1.354       .  A
C723       C1310   1.485       .  S
N724        N730   1.323       .  A
N725        C751   1.350       .  A
N725        N727   1.315       .  A
N725       Co741   2.106   1_556  S
N726        C740   1.340       .  A
N727        N755   1.328       .  A
N727       Co745   2.087       .  S
H728        C751   1.080       .  S
H729        C746   1.082       .  S
N731       Co745   2.056       .  S
N732        N744   1.331       .  A
N732        N748   1.315       .  A
C733        N737   1.341       .  A
C733        C747   1.481       .  S
C733       C1393   1.486       .  S
C734        C753   1.464       .  S
C734        H738   1.081       .  S
N735        C746   1.323       .  A
N735       Co745   2.057       .  S
C739        N755   1.349       .  A
C739        C751   1.468       .  S
C739       C1278   1.495       .  S
N742        C753   1.346       .  A
C743       C1361   1.495       .  S
C753       C1297   1.486       .  S
C756        N774   1.372       .  A
C756        C793   1.439       .  S
C756       C1265   1.508       .  S
N757        N774   1.336       .  A
N757        N779   1.320       .  A
N757       Co794   2.157       .  S
C758        N783   1.351       .  A
C758        C796   1.470       .  S
C758        H803   1.071       .  S
H759        C800   1.079       .  S
C760        N784   1.341       .  A
C760        C764   1.449       .  S
C760        H789   1.077       .  S
Co761       N779   2.060       .  S
Co761       N769   2.085       .  S
Co761       N801   2.090       .  S
Co761       N777   2.074       .  S
Co761      Cl805   2.358       .  S
N762        C800   1.330       .  A
N762        N769   1.305       .  A
Co763       N766   2.123       .  S
Co763       N770   2.051       .  S
C764        N802   1.359       .  A
C764       C1201   1.495       .  S
N765        N772   1.319       .  A
N765        N795   1.313       .  A
N765       Co798   2.085       .  S
N766        N784   1.318       .  A
N766        N802   1.333       .  A
N767        C796   1.342       .  A
N767        N777   1.325       .  A
H768        C793   1.075       .  S
N769        N790   1.328       .  A
N770        N788   1.308       .  A
N770        N775   1.320       .  A
C771        N775   1.348       .  A
C771        C799   1.470       .  S
C771       C1185   1.488       .  S
N772        C787   1.358       .  A
C773        N801   1.333       .  A
C773        C776   1.444       .  S
C773        H807   1.082       .  S
C776        N797   1.366       .  A
C776       C1230   1.498       .  S
N777        N783   1.318       .  A
N778        C804   1.362       .  A
N778        N780   1.324       .  A
N779        C793   1.327       .  A
N780        N808   1.315       .  A
N780       Co798   2.070       .  S
H781        C804   1.082       .  S
H782        C799   1.078       .  S
N784       Co798   2.080       .  S
N785        N797   1.337       .  A
N785        N801   1.320       .  A
N785       Co794   2.120       .  S
C786        N790   1.357       .  A
C786        C800   1.464       .  S
C786       C1166   1.501       .  S
C787        C806   1.487       .  S
C787        H791   1.080       .  S
N788        C799   1.342       .  A
N788       Co798   2.078       .  S
C792        N808   1.334       .  A
C792        C804   1.493       .  S
C792       C1217   1.504       .  S
Co794      Cl805   2.541       .  S
N795        C806   1.341       .  A
C796       C1150   1.498       .  S
C806       C1249   1.503       .  S
C809        N827   1.355       .  A
C809        C846   1.445       .  S
C809       C1329   1.486       .  S
N810        N827   1.328       .  A
N810        N832   1.312       .  A
N810       Co847   2.115   1_545  S
C811        N836   1.362       .  A
C811        C849   1.496       .  S
C811        H856   1.079       .  S
H812        C853   1.081       .  S
C813        N837   1.331       .  A
C813        C817   1.450       .  S
C813        H842   1.081       .  S
Co814       N832   2.055   1_565  S
Co814       N822   2.057   1_565  S
Co814       N854   2.071       .  S
Co814       N830   2.039       .  S
Co814      Cl858   2.388   1_565  S
N815        C853   1.359       .  A
N815        N822   1.324       .  A
N815       Co816   2.142       .  S
Co816       N819   2.149       .  S
Co816       N836   2.151   1_545  S
Co816       N823   2.138   1_545  S
Co816      Cl858   2.525       .  S
C817        N855   1.370       .  A
C817       C1118   1.515       .  S
N818        N825   1.310       .  A
N818        N848   1.323       .  A
N818       Co851   2.076       .  S
N819        N837   1.323       .  A
N819        N855   1.339       .  A
N820        C849   1.333       .  A
N820        N830   1.308       .  A
H821        C846   1.077       .  S
N822        N843   1.314       .  A
N823        N841   1.324       .  A
N823        N828   1.335       .  A
C824        N828   1.366       .  A
C824        C852   1.449       .  S
C824       C1089   1.504       .  S
N825        C840   1.336       .  A
N825       Co847   2.068   1_545  S
C826        N854   1.340       .  A
C826        C829   1.457       .  S
C826        H860   1.079       .  S
C829        N850   1.355       .  A
C829       C1313   1.479       .  S
N830        N836   1.323       .  A
N831        C857   1.343       .  A
N831        N833   1.315       .  A
N831       Co847   2.099       .  S
N832        C846   1.340       .  A
N833        N861   1.329       .  A
N833       Co851   2.086   1_565  S
H834        C857   1.074       .  S
H835        C852   1.081       .  S
N837       Co851   2.068       .  S
N838        N850   1.326       .  A
N838        N854   1.313       .  A
N838       Co847   2.089       .  S
C839        N843   1.330       .  A
C839        C853   1.486       .  S
C839       C1134   1.482       .  S
C840        C859   1.467       .  S
C840        H844   1.067       .  S
N841        C852   1.327       .  A
N841       Co851   2.062   1_565  S
C845        N861   1.351       .  A
C845        C857   1.473       .  S
C845       C1153   1.496       .  S
Co847      Cl858   2.507   1_565  S
N848        C859   1.355       .  A
C849       C1102   1.503       .  S
Co851      Cl858   2.382       .  S
C859       C1169   1.505       .  S
C862        N880   1.371       .  A
C862        C899   1.441       .  S
C862       C1073   1.505       .  S
N863        N880   1.340       .  A
N863        N885   1.322       .  A
N863       Co900   2.148       .  S
C864        N889   1.346       .  A
C864        C902   1.468       .  S
C864        H909   1.077       .  S
H865        C906   1.076       .  S
C866        N890   1.338       .  A
C866        C870   1.448       .  S
C866        H895   1.076       .  S
Co867       N885   2.050   1_565  S
Co867       N875   2.082   1_565  S
Co867       N907   2.050       .  S
Co867       N883   2.073       .  S
Co867      Cl911   2.372       .  S
N868        C906   1.345       .  A
N868        N875   1.314       .  A
N868       Co869   2.083   1_545  S
Co869       N872   2.133   1_565  S
Co869       N889   2.113       .  S
Co869       N876   2.093       .  S
Co869      Cl911   2.499       .  S
C870        N908   1.366       .  A
C870       C1198   1.500       .  S
N871        N878   1.327       .  A
N871        N901   1.316       .  A
N871       Co904   2.070   1_545  S
N872        N890   1.314       .  A
N872        N908   1.334       .  A
N873        C902   1.349       .  A
N873        N883   1.329       .  A
H874        C899   1.082       .  S
N875        N896   1.324       .  A
N876        N894   1.314       .  A
N876        N881   1.328       .  A
C877        N881   1.351       .  A
C877        C905   1.468       .  S
C877       C1182   1.512       .  S
N878        C893   1.361       .  A
N878       Co900   2.147       .  S
C879        N907   1.328       .  A
C879        C882   1.439       .  S
C879        H913   1.081       .  S
C882        N903   1.364       .  A
C882       C1041   1.487       .  S
N883        N889   1.313       .  A
N884        C910   1.360       .  A
N884        N886   1.325       .  A
N884       Co900   2.134   1_565  S
N885        C899   1.322       .  A
N886        N914   1.311       .  A
N886       Co904   2.046       .  S
H887        C910   1.081       .  S
H888        C905   1.077       .  S
N890       Co904   2.061   1_545  S
N891        N903   1.334       .  A
N891        N907   1.322       .  A
N891       Co900   2.134   1_565  S
C892        N896   1.347       .  A
C892        C906   1.466       .  S
C892       C1294   1.482       .  S
C893        C912   1.486       .  S
C893        H897   1.081       .  S
N894        C905   1.342       .  A
N894       Co904   2.085       .  S
C898        N914   1.331       .  A
C898        C910   1.481       .  S
C898       C1025   1.481       .  S
Co900      Cl911   2.537   1_545  S
N901        C912   1.336       .  A
C902       C1281   1.499       .  S
Co904      Cl911   2.387       .  S
C912       C1054   1.497       .  S
C915        N933   1.359       .  A
C915        C952   1.455       .  S
C915       C1390   1.509       .  S
N916        N933   1.333       .  A
N916        N938   1.314       .  A
N916      Co2357   2.115       .  S
C917        N942   1.360       .  A
C917        C955   1.483       .  S
C917        H962   1.081       .  S
H918        C959   1.080       .  S
C919        N943   1.329       .  A
C919        C923   1.444       .  S
C919        H948   1.081       .  S
Co920       N938   2.075       .  S
Co920       N928   2.063       .  S
Co920       N960   2.087       .  S
Co920       N936   2.042       .  S
Co920     Cl2368   2.378       .  S
N921        C959   1.358       .  A
N921        N928   1.325       .  A
N921      Co2326   2.133       .  S
Co922      N2325   2.118       .  S
Co922       N925   2.167       .  S
Co922      N2346   2.157       .  S
Co922       N929   2.133       .  S
Co922      Cl964   2.533       .  S
C923        N961   1.374       .  A
C923       C1121   1.512       .  S
N924        N931   1.315       .  A
N924        N954   1.323       .  A
N924       Co957   2.062       .  S
N925        N943   1.321       .  A
N925        N961   1.342       .  A
N926        C955   1.330       .  A
N926        N936   1.313       .  A
H927        C952   1.078       .  S
N928        N949   1.311       .  A
N929        N947   1.323       .  A
N929        N934   1.337       .  A
C930        N934   1.365       .  A
C930        C958   1.433       .  S
C930       C1057   1.485       .  S
N931        C946   1.344       .  A
N931       Co953   2.082       .  S
C932        N960   1.345       .  A
C932        C935   1.457       .  S
C932        H966   1.078       .  S
C935        N956   1.352       .  A
C935       C1377   1.494       .  S
N936        N942   1.325       .  A
N937        C963   1.356       .  A
N937        N939   1.316       .  A
N937       Co953   2.110       .  S
N938        C952   1.340       .  A
N939        N967   1.322       .  A
N939       Co957   2.081       .  S
H940        C963   1.080       .  S
H941        C958   1.079       .  S
N942      Co2326   2.146       .  S
N943       Co957   2.055       .  S
N944        N956   1.329       .  A
N944        N960   1.315       .  A
N944      Co2357   2.098       .  S
C945        N949   1.333       .  A
C945        C959   1.487       .  S
C945       C1137   1.489       .  S
C946        C965   1.456       .  S
C946        H950   1.077       .  S
N947        C958   1.323       .  A
N947       Co957   2.047       .  S
C951        N967   1.347       .  A
C951        C963   1.472       .  S
C951       C1246   1.506       .  S
Co953      N2320   2.112       .  S
Co953      N2348   2.088       .  S
Co953      Cl964   2.512       .  S
N954        C965   1.342       .  A
C955       C1070   1.481       .  S
Co957      Cl964   2.374       .  S
Cl964     Co2324   2.380       .  S
C965       C1262   1.472       .  S
C968        N986   1.362       .  A
C968       C1005   1.436       .  S
C968       C1105   1.482       .  S
N969        N986   1.336       .  A
N969        N991   1.322       .  A
N969      Co1006   2.115       .  S
C970        N995   1.358       .  A
C970       C1008   1.477       .  S
C970       H1015   1.078       .  S
H971       C1012   1.076       .  S
C972        N996   1.336       .  A
C972        C976   1.464       .  S
C972       H1001   1.071       .  S
Co973       N991   2.061       .  S
Co973       N981   2.057       .  S
Co973      N1013   2.042       .  S
Co973       N989   2.069       .  S
Co973     Cl2421   2.366   1_455  S
N974       C1012   1.350       .  A
N974        N981   1.313       .  A
N974      Co2379   2.105   1_455  S
Co975      N2378   2.110       .  S
Co975       N978   2.126       .  S
Co975      N2399   2.128       .  S
Co975       N982   2.105       .  S
Co975     Cl1017   2.500       .  S
C976       N1014   1.367       .  A
C976       C1233   1.522       .  S
N977        N984   1.324       .  A
N977       N1007   1.315       .  A
N977      Co1010   2.062       .  S
N978        N996   1.312       .  A
N978       N1014   1.334       .  A
N979       C1008   1.346       .  A
N979        N989   1.324       .  A
H980       C1005   1.082       .  S
N981       N1002   1.322       .  A
N982       N1000   1.316       .  A
N982        N987   1.329       .  A
C983        N987   1.351       .  A
C983       C1011   1.450       .  S
C983       C1214   1.483       .  S
N984        C999   1.356       .  A
N984      Co2410   2.133       .  S
C985       N1013   1.325       .  A
C985        C988   1.436       .  S
C985       H1019   1.074       .  S
C988       N1009   1.365       .  A
C988       C1038   1.495       .  S
N989        N995   1.314       .  A
N990       C1016   1.356       .  A
N990        N992   1.324       .  A
N990      Co2410   2.125       .  S
N991       C1005   1.325       .  A
N992       N1020   1.310       .  A
N992      Co1010   2.051       .  S
H993       C1016   1.080       .  S
H994       C1011   1.080       .  S
N995      Co2379   2.129   1_455  S
N996      Co1010   2.075       .  S
N997       N1009   1.335       .  A
N997       N1013   1.320       .  A
N997      Co1006   2.124       .  S
C998       N1002   1.343       .  A
C998       C1012   1.478       .  S
C998       C1358   1.501       .  S
C999       C1018   1.483       .  S
C999       H1003   1.081       .  S
N1000      C1011   1.341       .  A
N1000     Co1010   2.066       .  S
C1004      N1020   1.333       .  A
C1004      C1016   1.483       .  S
C1004      C1022   1.484       .  S
Co1006     N2388   2.118   1_455  S
Co1006     N2394   2.120   1_455  S
Co1006    Cl2421   2.527   1_455  S
N1007      C1018   1.337       .  A
C1008      C1342   1.516       .  S
Co1010    Cl1017   2.380       .  S
Cl1017    Co2377   2.368       .  S
Cl1017    Co2410   2.532       .  S
C1018      C1086   1.491       .  S
C1021      H1028   1.086       .  S
C1021      C1022   1.398       .  A
C1021      C1026   1.395       .  A
C1022      C1023   1.422       .  A
C1023      C1024   1.422       .  A
C1023      C1030   1.509       .  S
C1024      H1029   1.083       .  S
C1024      C1025   1.406       .  A
C1025      C1026   1.415       .  A
C1026      C1027   1.511       .  S
C1027      F1031   1.383       .  S
C1027      F1032   1.382       .  S
C1027      F1033   1.382       .  S
C1030      F1034   1.380       .  S
C1030      F1035   1.381       .  S
C1030      F1036   1.383       .  S
C1037      H1044   1.085       .  S
C1037      C1038   1.393       .  A
C1037      C1042   1.404       .  A
C1038      C1039   1.437       .  A
C1039      C1040   1.407       .  A
C1039      C1046   1.518       .  S
C1040      H1045   1.085       .  S
C1040      C1041   1.393       .  A
C1041      C1042   1.429       .  A
C1042      C1043   1.514       .  S
C1043      F1047   1.383   1_565  S
C1043      F1048   1.376   1_565  S
C1043      F1049   1.383       .  S
C1046      F1050   1.375       .  S
C1046      F1051   1.383       .  S
C1046      F1052   1.382       .  S
C1053      H1060   1.083       .  S
C1053      C1054   1.409       .  A
C1053      C1058   1.422       .  A
C1054      C1055   1.425       .  A
C1055      C1056   1.403       .  A
C1055      C1062   1.518       .  S
C1056      H1061   1.086       .  S
C1056      C1057   1.397       .  A
C1057      C1058   1.419       .  A
C1058      C1059   1.513       .  S
C1059      F1063   1.384       .  S
C1059      F1064   1.380       .  S
C1059      F1065   1.378       .  S
C1062      F1066   1.381       .  S
C1062      F1067   1.378       .  S
C1062      F1068   1.383       .  S
C1069      H1076   1.081       .  S
C1069      C1070   1.411       .  A
C1069      C1074   1.423       .  A
C1070      C1071   1.410       .  A
C1071      C1072   1.403       .  A
C1071      C1078   1.521       .  S
C1072      H1077   1.083       .  S
C1072      C1073   1.412       .  A
C1073      C1074   1.422       .  A
C1074      C1075   1.516       .  S
C1075      F1079   1.385       .  S
C1075      F1080   1.382       .  S
C1075      F1081   1.383       .  S
C1078      F1082   1.383       .  S
C1078      F1083   1.381       .  S
C1078      F1084   1.384       .  S
C1085      H1092   1.083       .  S
C1085      C1086   1.414       .  A
C1085      C1090   1.413       .  A
C1086      C1087   1.409       .  A
C1087      C1088   1.409       .  A
C1087      C1094   1.518       .  S
C1088      H1093   1.079       .  S
C1088      C1089   1.417       .  A
C1089      C1090   1.413       .  A
C1090      C1091   1.516       .  S
C1091      F1095   1.385       .  S
C1091      F1096   1.383       .  S
C1091      F1097   1.383       .  S
C1094      F1098   1.385       .  S
C1094      F1099   1.383       .  S
C1094      F1100   1.381       .  S
C1101      H1108   1.083       .  S
C1101      C1102   1.414       .  A
C1101      C1106   1.400       .  A
C1102      C1103   1.422       .  A
C1103      C1104   1.426       .  A
C1103      C1110   1.516       .  S
C1104      H1109   1.083       .  S
C1104      C1105   1.413       .  A
C1105      C1106   1.407       .  A
C1106      C1107   1.523       .  S
C1107      F1111   1.381       .  S
C1107      F1112   1.383       .  S
C1107      F1113   1.382       .  S
C1110      F1114   1.380       .  S
C1110      F1115   1.382       .  S
C1110      F1116   1.384       .  S
C1117      H1124   1.080       .  S
C1117      C1118   1.419       .  A
C1117      C1122   1.418       .  A
C1118      C1119   1.414       .  A
C1119      C1120   1.416       .  A
C1119      C1126   1.517       .  S
C1120      H1125   1.081       .  S
C1120      C1121   1.418       .  A
C1121      C1122   1.412       .  A
C1122      C1123   1.516       .  S
C1123      F1127   1.385       .  S
C1123      F1128   1.382       .  S
C1123      F1129   1.383       .  S
C1126      F1130   1.382       .  S
C1126      F1131   1.383       .  S
C1126      F1132   1.385       .  S
C1133      H1140   1.080       .  S
C1133      C1134   1.407       .  A
C1133      C1138   1.418       .  A
C1134      C1135   1.415       .  A
C1135      C1136   1.404       .  A
C1135      C1142   1.519       .  S
C1136      H1141   1.083       .  S
C1136      C1137   1.407       .  A
C1137      C1138   1.418       .  A
C1138      C1139   1.514       .  S
C1139      F1143   1.383       .  S
C1139      F1144   1.382       .  S
C1139      F1145   1.381       .  S
C1142      F1146   1.380       .  S
C1142      F1147   1.383       .  S
C1142      F1148   1.385       .  S
C1149      H1156   1.083       .  S
C1149      C1150   1.409       .  A
C1149      C1154   1.419       .  A
C1150      C1151   1.419       .  A
C1151      C1152   1.414       .  A
C1151      C1158   1.521       .  S
C1152      H1157   1.083       .  S
C1152      C1153   1.403       .  A
C1153      C1154   1.416       .  A
C1154      C1155   1.521       .  S
C1155      F1160   1.383       .  S
C1158      F1162   1.381       .  S
C1158      F1163   1.383       .  S
C1158      F1164   1.384       .  S
C1165      H1172   1.074       .  S
C1165      C1166   1.404       .  A
C1165      C1170   1.403       .  A
C1166      C1167   1.418       .  A
C1167      C1168   1.408       .  A
C1167      C1174   1.516       .  S
C1168      H1173   1.081       .  S
C1168      C1169   1.411       .  A
C1169      C1170   1.427       .  A
C1170      C1171   1.520       .  S
C1171      F1175   1.383       .  S
C1171      F1176   1.373       .  S
C1174      F1178   1.383       .  S
C1174      F1179   1.379       .  S
C1174      F1180   1.385       .  S
C1181      H1188   1.074       .  S
C1181      C1182   1.414       .  A
C1181      C1186   1.407       .  A
C1182      C1183   1.434       .  A
C1183      C1184   1.404       .  A
C1183      C1190   1.519       .  S
C1184      H1189   1.077       .  S
C1184      C1185   1.400       .  A
C1185      C1186   1.406       .  A
C1186      C1187   1.517       .  S
C1187      F1191   1.380       .  S
C1187      F1192   1.382       .  S
C1187      F1193   1.383       .  S
C1190      F1194   1.370       .  S
C1197      H1204   1.082       .  S
C1197      C1198   1.406       .  A
C1197      C1202   1.413       .  A
C1198      C1199   1.416       .  A
C1199      C1200   1.418       .  A
C1199      C1206   1.514       .  S
C1200      H1205   1.083       .  S
C1200      C1201   1.408       .  A
C1201      C1202   1.417       .  A
C1202      C1203   1.522       .  S
C1203      F1207   1.384       .  S
C1203      F1208   1.378       .  S
C1203      F1209   1.383       .  S
C1206      F1210   1.382       .  S
C1213      H1220   1.084       .  S
C1213      C1214   1.388       .  A
C1213      C1218   1.402       .  A
C1214      C1215   1.423       .  A
C1215      C1216   1.418       .  A
C1215      C1222   1.516       .  S
C1216      H1221   1.084       .  S
C1216      C1217   1.404       .  A
C1217      C1218   1.433       .  A
C1218      C1219   1.509       .  S
C1219      F1223   1.380       .  S
C1219      F1224   1.383       .  S
C1219      F1225   1.369       .  S
C1222      F1226   1.382       .  S
C1222      F1227   1.383       .  S
C1222      F1228   1.384       .  S
C1229      H1236   1.084       .  S
C1229      C1230   1.399       .  A
C1229      C1234   1.414       .  A
C1230      C1231   1.416       .  A
C1231      C1232   1.419       .  A
C1231      C1238   1.514       .  S
C1232      H1237   1.083       .  S
C1232      C1233   1.409       .  A
C1233      C1234   1.437       .  A
C1234      C1235   1.519       .  S
C1235      F1239   1.385       .  S
C1235      F1240   1.382       .  S
C1235      F1241   1.382       .  S
C1238      F1242   1.382       .  S
C1238      F1243   1.370       .  S
C1238      F1244   1.385       .  S
C1245      H1252   1.082       .  S
C1245      C1246   1.412       .  A
C1245      C1250   1.427       .  A
C1246      C1247   1.420       .  A
C1247      C1248   1.403       .  A
C1247      C1254   1.518       .  S
C1248      H1253   1.085       .  S
C1248      C1249   1.404       .  A
C1249      C1250   1.424       .  A
C1250      C1251   1.513       .  S
C1251      F1255   1.381       .  S
C1251      F1256   1.379       .  S
C1251      F1257   1.381       .  S
C1254      F1258   1.375       .  S
C1254      F1259   1.384       .  S
C1254      F1260   1.381       .  S
C1261      H1268   1.085       .  S
C1261      C1262   1.381       .  A
C1261      C1266   1.398       .  A
C1262      C1263   1.416       .  A
C1263      C1264   1.416       .  A
C1263      C1270   1.515       .  S
C1264      H1269   1.083       .  S
C1264      C1265   1.406       .  A
C1265      C1266   1.446       .  A
C1266      C1267   1.520       .  S
C1267      F1271   1.385       .  S
C1267      F1272   1.382       .  S
C1267      F1273   1.364       .  S
C1270      F1274   1.382       .  S
C1270      F1275   1.380       .  S
C1270      F2680   1.384       .  S
F1276      C2674   1.384       .  S
C1277      H1284   1.083       .  S
C1277      C1278   1.404       .  A
C1277      C1282   1.414       .  A
C1278      C1279   1.415       .  A
C1279      C1280   1.420       .  A
C1279      C1286   1.515       .  S
C1280      H1285   1.083       .  S
C1280      C1281   1.410       .  A
C1281      C1282   1.412       .  A
C1282      C1283   1.507       .  S
C1283      F1289   1.382       .  S
C1286      F1290   1.383       .  S
C1286      F1291   1.381       .  S
C1286      F1292   1.384       .  S
C1293      H1300   1.084       .  S
C1293      C1294   1.399       .  A
C1293      C1298   1.408       .  A
C1294      C1295   1.415       .  A
C1295      C1296   1.415       .  A
C1295      C1302   1.515       .  S
C1296      H1301   1.082       .  S
C1296      C1297   1.406       .  A
C1297      C1298   1.405       .  A
C1298      C1299   1.504       .  S
C1299      F1303   1.377       .  S
C1299      F1304   1.380       .  S
C1299      F1305   1.384       .  S
C1302      F1306   1.383       .  S
C1302      F1307   1.382       .  S
C1302      F1308   1.383       .  S
C1309      H1316   1.083       .  S
C1309      C1310   1.408       .  A
C1309      C1314   1.415       .  A
C1310      C1311   1.404       .  A
C1311      C1312   1.404       .  A
C1311      C1318   1.501       .  S
C1312      H1317   1.084       .  S
C1312      C1313   1.398       .  A
C1313      C1314   1.417       .  A
C1314      C1315   1.519       .  S
C1315      F1319   1.384       .  S
C1315      F1320   1.381       .  S
C1315      F1321   1.379       .  S
C1318      F1322   1.377       .  S
C1318      F1323   1.384       .  S
C1318      F1324   1.380       .  S
C1325      H1332   1.083       .  S
C1325      C1326   1.401       .  A
C1325      C1330   1.412       .  A
C1326      C1327   1.421       .  A
C1327      C1328   1.409       .  A
C1327      C1334   1.519       .  S
C1328      H1333   1.081       .  S
C1328      C1329   1.398       .  A
C1329      C1330   1.425       .  A
C1330      C1331   1.521       .  S
C1331      F1335   1.379       .  S
C1331      F1336   1.385       .  S
C1331      F1337   1.374       .  S
C1334      F1338   1.380       .  S
C1334      F1339   1.377       .  S
C1334      F1340   1.382       .  S
C1341      H1348   1.082       .  S
C1341      C1342   1.418       .  A
C1341      C1346   1.429       .  A
C1342      C1343   1.425       .  A
C1343      C1344   1.405       .  A
C1343      C1350   1.520       .  S
C1344      H1349   1.084       .  S
C1344      C1345   1.404       .  A
C1345      C1346   1.419       .  A
C1346      C1347   1.513       .  S
C1347      F1351   1.383   1_455  S
C1347      F1352   1.383       .  S
C1347      F1353   1.381       .  S
C1350      F1354   1.376       .  S
C1350      F1355   1.384       .  S
C1350      F1356   1.385       .  S
C1357      H1364   1.085       .  S
C1357      C1358   1.397       .  A
C1357      C1362   1.402       .  A
C1358      C1359   1.422       .  A
C1359      C1360   1.416       .  A
C1359      C1366   1.493       .  S
C1360      H1365   1.083       .  S
C1360      C1361   1.397       .  A
C1361      C1362   1.426       .  A
C1362      C1363   1.512       .  S
C1363      F1367   1.383       .  S
C1363      F1368   1.380       .  S
C1363      F1369   1.382       .  S
C1366      F2774   1.384       .  S
C1366      F2775   1.369   1_455  S
C1366      F2776   1.384   1_455  S
F1370      C2770   1.384       .  S
F1371      C2770   1.372       .  S
F1372      C2770   1.384       .  S
C1373      H1380   1.083       .  S
C1373      C1374   1.408       .  A
C1373      C1378   1.409       .  A
C1374      C1375   1.413       .  A
C1375      C1376   1.417       .  A
C1375      C1382   1.515       .  S
C1376      H1381   1.082       .  S
C1376      C1377   1.409       .  A
C1377      C1378   1.412       .  A
C1378      C1379   1.513       .  S
C1379      F1383   1.382       .  S
C1379      F1384   1.379       .  S
C1379      F1385   1.383       .  S
C1382      F2790   1.382       .  S
C1382      F1387   1.384       .  S
C1382      F2792   1.384       .  S
F1386      C2786   1.382       .  S
F1388      C2786   1.385       .  S
C1389      H1396   1.081       .  S
C1389      C1390   1.413       .  A
C1389      C1394   1.412       .  A
C1390      C1391   1.419       .  A
C1391      C1392   1.415       .  A
C1391      C1398   1.508       .  S
C1392      H1397   1.083       .  S
C1392      C1393   1.401       .  A
C1393      C1394   1.413       .  A
C1394      C1395   1.517       .  S
C1395      F1399   1.381       .  S
C1395      F1400   1.383       .  S
C1395      F1401   1.384       .  S
C1398      F1402   1.383       .  S
C1398      F2807   1.378       .  S
C1398      F2808   1.378       .  S
F1403      C2802   1.380       .  S
F1404      C2802   1.376       .  S
C1405      N1423   1.354       .  A
C1405      C1442   1.454       .  S
C1405      C2028   1.486       .  S
N1406      N1423   1.329       .  A
N1406      N1428   1.316       .  A
N1406     Co2145   2.111       .  S
C1407      N1432   1.363       .  A
C1407      C1445   1.495       .  S
C1407      H1452   1.081       .  S
H1408      C1449   1.081       .  S
C1409      N1433   1.328       .  A
C1409      C1413   1.445       .  S
C1409      H1438   1.082       .  S
Co1410     N1428   2.069       .  S
Co1410     N1418   2.071       .  S
Co1410     N1450   2.074       .  S
Co1410     N1426   2.057       .  S
Co1410    Cl1454   2.393       .  S
N1411      C1449   1.353       .  A
N1411      N1418   1.324       .  A
N1411     Co1412   2.128       .  S
Co1412     N2117   2.145   1_554  S
Co1412     N1432   2.159       .  S
Co1412     N2121   2.134   1_554  S
Co1412    Cl1454   2.536       .  S
C1413      N1451   1.370       .  A
C1413      C2076   1.494       .  S
N1414      N1421   1.314       .  A
N1414      N1444   1.327       .  A
N1414     Co1447   2.073       .  S
N1415      N1433   1.319       .  A
N1415      N1451   1.336       .  A
N1415     Co2114   2.147       .  S
N1416      C1445   1.333       .  A
N1416      N1426   1.314       .  A
H1417      C1442   1.080       .  S
N1418      N1439   1.317       .  A
N1419      N1437   1.321       .  A
N1419      N1424   1.342       .  A
N1419     Co2114   2.140       .  S
C1420      N1424   1.370       .  A
C1420      C1448   1.441       .  S
C1420      C2047   1.505       .  S
N1421      C1436   1.349       .  A
N1421     Co1443   2.100       .  S
C1422      N1450   1.334       .  A
C1422      C1425   1.445       .  S
C1422      H1456   1.080       .  S
C1425      N1446   1.356       .  A
C1425      C2012   1.487       .  S
N1426      N1432   1.324       .  A
N1427      C1453   1.351       .  A
N1427      N1429   1.316       .  A
N1427     Co1443   2.111       .  S
N1428      C1442   1.340       .  A
N1429      N1457   1.329       .  A
N1429     Co1447   2.089       .  S
H1430      C1453   1.080       .  S
H1431      C1448   1.082       .  S
N1433     Co1447   2.059       .  S
N1434      N1446   1.331       .  A
N1434      N1450   1.316       .  A
N1434     Co2145   2.102       .  S
C1435      N1439   1.341       .  A
C1435      C1449   1.479       .  S
C1435      C2095   1.481       .  S
C1436      C1455   1.465       .  S
C1436      H1440   1.080       .  S
N1437      C1448   1.321       .  A
N1437     Co1447   2.054       .  S
C1441      N1457   1.349       .  A
C1441      C1453   1.469       .  S
C1441      C1980   1.498       .  S
Co1443     N2108   2.111       .  S
Co1443     N2136   2.100       .  S
Co1443    Cl2156   2.503       .  S
N1444      C1455   1.345       .  A
C1445      C2063   1.500       .  S
Co1447    Cl2156   2.371       .  S
Cl1454    Co2145   2.503       .  S
Cl1454    Co2149   2.370   1_554  S
C1455      C1999   1.489       .  S
C1458      N1476   1.371       .  A
C1458      C1495   1.440       .  S
C1458      C1967   1.507       .  S
N1459      N1476   1.336       .  A
N1459      N1481   1.319       .  A
N1459     Co1496   2.153       .  S
C1460      N1485   1.351       .  A
C1460      C1498   1.471       .  S
C1460      H1505   1.075       .  S
H1461      C1502   1.079       .  S
C1462      N1486   1.340       .  A
C1462      C1466   1.450       .  S
C1462      H1491   1.077       .  S
Co1463     N1481   2.064       .  S
Co1463     N1471   2.083       .  S
Co1463     N1503   2.096       .  S
Co1463     N1479   2.076       .  S
Co1463    Cl1507   2.362       .  S
N1464      C1502   1.331       .  A
N1464      N1471   1.306       .  A
N1464     Co2167   2.048   1_554  S
Co1465     N2166   2.046       .  S
Co1465     N1468   2.125       .  S
Co1465     N2187   2.120       .  S
Co1465     N1472   2.058       .  S
Co1465    Cl2209   2.507       .  S
C1466      N1504   1.361       .  A
C1466      C1903   1.494       .  S
N1467      N1474   1.320       .  A
N1467      N1497   1.312       .  A
N1467     Co1500   2.084       .  S
N1468      N1486   1.317       .  A
N1468      N1504   1.333       .  A
N1469      C1498   1.343       .  A
N1469      N1479   1.325       .  A
H1470      C1495   1.075       .  S
N1471      N1492   1.328       .  A
N1472      N1490   1.310       .  A
N1472      N1477   1.320       .  A
C1473      N1477   1.349       .  A
C1473      C1501   1.467       .  S
C1473      C1887   1.486       .  S
N1474      C1489   1.356       .  A
N1474     Co2198   2.106       .  S
C1475      N1503   1.334       .  A
C1475      C1478   1.444       .  S
C1475      H1509   1.081       .  S
C1478      N1499   1.365       .  A
C1478      C1932   1.492       .  S
N1479      N1485   1.318       .  A
N1480      C1506   1.362       .  A
N1480      N1482   1.324       .  A
N1480     Co2198   2.160       .  S
N1481      C1495   1.329       .  A
N1482      N1510   1.315       .  A
N1482     Co1500   2.066       .  S
H1483      C1506   1.081       .  S
H1484      C1501   1.079       .  S
N1485     Co2167   2.117   1_554  S
N1486     Co1500   2.077       .  S
N1487      N1499   1.335       .  A
N1487      N1503   1.320       .  A
N1487     Co1496   2.112       .  S
C1488      N1492   1.356       .  A
C1488      C1502   1.467       .  S
C1488      C1868   1.502       .  S
C1489      C1508   1.485       .  S
C1489      H1493   1.080       .  S
N1490      C1501   1.342       .  A
N1490     Co1500   2.076       .  S
C1494      N1510   1.334       .  A
C1494      C1506   1.492       .  S
C1494      C1919   1.504       .  S
Co1496     N2176   2.103   1_554  S
Co1496     N2182   2.158   1_554  S
Co1496    Cl1507   2.538       .  S
N1497      C1508   1.342       .  A
C1498      C1852   1.497       .  S
Co1500    Cl2209   2.366       .  S
Cl1507    Co2167   2.508   1_554  S
Cl1507    Co2202   2.362   1_554  S
C1508      C1951   1.500       .  S
C1511      N1529   1.358       .  A
C1511      C1548   1.446       .  S
C1511      C2031   1.489       .  S
N1512      N1529   1.329       .  A
N1512      N1534   1.313       .  A
N1512     Co1549   2.124   1_545  S
C1513      N1538   1.361       .  A
C1513      C1551   1.495       .  S
C1513      H1558   1.079       .  S
H1514      C1555   1.081       .  S
C1515      N1539   1.330       .  A
C1515      C1519   1.445       .  S
C1515      H1544   1.082       .  S
Co1516     N1534   2.055   1_565  S
Co1516     N1524   2.059   1_565  S
Co1516     N1556   2.068       .  S
Co1516     N1532   2.037       .  S
Co1516    Cl1560   2.384       .  S
N1517      C1555   1.358       .  A
N1517      N1524   1.324       .  A
N1517     Co1518   2.131       .  S
Co1518     N1521   2.138       .  S
Co1518     N1538   2.144   1_545  S
Co1518     N1525   2.130   1_545  S
Co1518    Cl1560   2.523   1_545  S
C1519      N1557   1.366       .  A
C1519      C1820   1.503       .  S
N1520      N1527   1.310       .  A
N1520      N1550   1.323       .  A
N1520     Co1553   2.075       .  S
N1521      N1539   1.324       .  A
N1521      N1557   1.336       .  A
N1522      C1551   1.332       .  A
N1522      N1532   1.307       .  A
H1523      C1548   1.078       .  S
N1524      N1545   1.314       .  A
N1525      N1543   1.324       .  A
N1525      N1530   1.334       .  A
C1526      N1530   1.364       .  A
C1526      C1554   1.448       .  S
C1526      C1791   1.500       .  S
N1527      C1542   1.336       .  A
N1527     Co1549   2.070   1_545  S
C1528      N1556   1.339       .  A
C1528      C1531   1.456       .  S
C1528      H1562   1.079       .  S
C1531      N1552   1.355       .  A
C1531      C2015   1.480       .  S
N1532      N1538   1.322       .  A
N1533      C1559   1.343       .  A
N1533      N1535   1.314       .  A
N1533     Co1549   2.105       .  S
N1534      C1548   1.340       .  A
N1535      N1563   1.329       .  A
N1535     Co1553   2.078   1_565  S
H1536      C1559   1.070       .  S
H1537      C1554   1.080       .  S
N1539     Co1553   2.060       .  S
N1540      N1552   1.326       .  A
N1540      N1556   1.313       .  A
N1540     Co1549   2.090       .  S
C1541      N1545   1.331       .  A
C1541      C1555   1.482       .  S
C1541      C1836   1.478       .  S
C1542      C1561   1.467       .  S
C1542      H1546   1.068       .  S
N1543      C1554   1.325       .  A
N1543     Co1553   2.058   1_565  S
C1547      N1563   1.350       .  A
C1547      C1559   1.472       .  S
C1547      C1855   1.497       .  S
Co1549    Cl1560   2.503       .  S
N1550      C1561   1.355       .  A
C1551      C1804   1.503       .  S
Co1553    Cl1560   2.380   1_545  S
C1561      C1871   1.506       .  S
C1564      N1582   1.370       .  A
C1564      C1601   1.445       .  S
C1564      C1775   1.507       .  S
N1565      N1582   1.339       .  A
N1565      N1587   1.321       .  A
N1565     Co1602   2.140       .  S
C1566      N1591   1.346       .  A
C1566      C1604   1.467       .  S
C1566      H1611   1.077       .  S
H1567      C1608   1.079       .  S
C1568      N1592   1.338       .  A
C1568      C1572   1.446       .  S
C1568      H1597   1.075       .  S
Co1569     N1587   2.055   1_565  S
Co1569     N1577   2.083   1_565  S
Co1569     N1609   2.052       .  S
Co1569     N1585   2.078       .  S
Co1569    Cl1613   2.376       .  S
N1570      C1608   1.346       .  A
N1570      N1577   1.314       .  A
N1570     Co1571   2.092   1_545  S
Co1571     N1574   2.130   1_565  S
Co1571     N1591   2.110       .  S
Co1571     N1578   2.097       .  S
Co1571    Cl1613   2.491       .  S
C1572      N1610   1.365       .  A
C1572      C1900   1.498       .  S
N1573      N1580   1.326       .  A
N1573      N1603   1.317       .  A
N1573     Co1606   2.067   1_545  S
N1574      N1592   1.314       .  A
N1574      N1610   1.333       .  A
N1575      C1604   1.351       .  A
N1575      N1585   1.329       .  A
H1576      C1601   1.082       .  S
N1577      N1598   1.325       .  A
N1578      N1596   1.314       .  A
N1578      N1583   1.327       .  A
C1579      N1583   1.350       .  A
C1579      C1607   1.468       .  S
C1579      C1884   1.510       .  S
N1580      C1595   1.359       .  A
N1580     Co1602   2.146       .  S
C1581      N1609   1.327       .  A
C1581      C1584   1.440       .  S
C1581      H1615   1.081       .  S
C1584      N1605   1.365       .  A
C1584      C1743   1.488       .  S
N1585      N1591   1.313       .  A
N1586      C1612   1.355       .  A
N1586      N1588   1.324       .  A
N1586     Co1602   2.126   1_565  S
N1587      C1601   1.321       .  A
N1588      N1616   1.313       .  A
N1588     Co1606   2.052       .  S
H1589      C1612   1.081       .  S
H1590      C1607   1.079       .  S
N1592     Co1606   2.061   1_545  S
N1593      N1605   1.335       .  A
N1593      N1609   1.322       .  A
N1593     Co1602   2.132   1_565  S
C1594      N1598   1.348       .  A
C1594      C1608   1.472       .  S
C1594      C1996   1.486       .  S
C1595      C1614   1.486       .  S
C1595      H1599   1.081       .  S
N1596      C1607   1.343       .  A
N1596     Co1606   2.079       .  S
C1600      N1616   1.333       .  A
C1600      C1612   1.476       .  S
C1600      C1727   1.475       .  S
Co1602    Cl1613   2.531   1_545  S
N1603      C1614   1.336       .  A
C1604      C1983   1.498       .  S
Co1606    Cl1613   2.398       .  S
C1614      C1756   1.493       .  S
C1617      N1635   1.358       .  A
C1617      C1654   1.454       .  S
C1617      C2092   1.502       .  S
N1618      N1635   1.332       .  A
N1618      N1640   1.314       .  A
C1619      N1644   1.363       .  A
C1619      C1657   1.488       .  S
C1619      H1664   1.081       .  S
H1620      C1661   1.080       .  S
C1621      N1645   1.327       .  A
C1621      C1625   1.440       .  S
C1621      H1650   1.081       .  S
Co1622     N1640   2.074       .  S
Co1622     N1630   2.066       .  S
Co1622     N1662   2.100       .  S
Co1622     N1638   2.035       .  S
N1623      C1661   1.354       .  A
N1623      N1630   1.324       .  A
Co1624     N1627   2.162   1_455  S
Co1624     N1631   2.129   1_455  S
Co1624    Cl1666   2.523       .  S
C1625      N1663   1.373       .  A
C1625      C1823   1.507       .  S
N1626      N1633   1.314       .  A
N1626      N1656   1.323       .  A
N1626     Co1659   2.060       .  S
N1627      N1645   1.321       .  A
N1627      N1663   1.340       .  A
N1628      C1657   1.328       .  A
N1628      N1638   1.313       .  A
H1629      C1654   1.079       .  S
N1630      N1651   1.311       .  A
N1631      N1649   1.322       .  A
N1631      N1636   1.335       .  A
C1632      N1636   1.365       .  A
C1632      C1660   1.434       .  S
C1632      C1759   1.479       .  S
N1633      C1648   1.343       .  A
N1633     Co1655   2.083   1_655  S
C1634      N1662   1.348       .  A
C1634      C1637   1.463       .  S
C1634      H1668   1.079       .  S
C1637      N1658   1.350       .  A
C1637      C2079   1.495       .  S
N1638      N1644   1.326       .  A
N1639      C1665   1.354       .  A
N1639      N1641   1.314       .  A
N1639     Co1655   2.109   1_655  S
N1640      C1654   1.341       .  A
N1641      N1669   1.323       .  A
N1641     Co1659   2.071       .  S
H1642      C1665   1.079       .  S
H1643      C1660   1.078       .  S
N1645     Co1659   2.042       .  S
N1646      N1658   1.328       .  A
N1646      N1662   1.316       .  A
C1647      N1651   1.335       .  A
C1647      C1661   1.482       .  S
C1647      C1839   1.483       .  S
C1648      C1667   1.456       .  S
C1648      H1652   1.075       .  S
N1649      C1660   1.322       .  A
N1649     Co1659   2.047       .  S
C1653      N1669   1.345       .  A
C1653      C1665   1.473       .  S
C1653      C1948   1.501       .  S
Co1655    Cl1666   2.516       .  S
N1656      C1667   1.342       .  A
C1657      C1772   1.485       .  S
Co1659    Cl1666   2.375   1_655  S
C1667      C1964   1.473       .  S
C1670      N1688   1.359       .  A
C1670      C1707   1.436       .  S
C1670      C1807   1.475       .  S
N1671      N1688   1.333       .  A
N1671      N1693   1.323       .  A
N1671     Co1708   2.107       .  S
C1672      N1697   1.357       .  A
C1672      C1710   1.475       .  S
C1672      H1717   1.079       .  S
H1673      C1714   1.074       .  S
C1674      N1698   1.337       .  A
C1674      C1678   1.462       .  S
C1674      H1703   1.073       .  S
Co1675     N1693   2.062       .  S
Co1675     N1683   2.062       .  S
Co1675     N1715   2.049       .  S
Co1675     N1691   2.069       .  S
N1676      C1714   1.351       .  A
N1676      N1683   1.314       .  A
Co1677     N1680   2.130       .  S
Co1677     N1684   2.104       .  S
Co1677    Cl1719   2.496       .  S
C1678      N1716   1.366       .  A
C1678      C1935   1.519       .  S
N1679      N1686   1.325       .  A
N1679      N1709   1.316       .  A
N1679     Co1712   2.059       .  S
N1680      N1698   1.314       .  A
N1680      N1716   1.335       .  A
N1681      C1710   1.346       .  A
N1681      N1691   1.323       .  A
H1682      C1707   1.082       .  S
N1683      N1704   1.324       .  A
N1684      N1702   1.315       .  A
N1684      N1689   1.329       .  A
C1685      N1689   1.351       .  A
C1685      C1713   1.448       .  S
C1685      C1916   1.485       .  S
N1686      C1701   1.351       .  A
C1687      N1715   1.326       .  A
C1687      C1690   1.438       .  S
C1687      H1721   1.072       .  S
C1690      N1711   1.368       .  A
C1690      C1740   1.504       .  S
N1691      N1697   1.314       .  A
N1692      C1718   1.356       .  A
N1692      N1694   1.323       .  A
N1693      C1707   1.326       .  A
N1694      N1722   1.308       .  A
N1694     Co1712   2.046       .  S
H1695      C1718   1.080       .  S
H1696      C1713   1.079       .  S
N1698     Co1712   2.076       .  S
N1699      N1711   1.338       .  A
N1699      N1715   1.321       .  A
N1699     Co1708   2.140       .  S
C1700      N1704   1.344       .  A
C1700      C1714   1.479       .  S
C1700      C2060   1.506       .  S
C1701      C1720   1.473       .  S
C1701      H1705   1.081       .  S
N1702      C1713   1.342       .  A
N1702     Co1712   2.068       .  S
C1706      N1722   1.331       .  A
C1706      C1718   1.484       .  S
C1706      C1724   1.481       .  S
N1709      C1720   1.337       .  A
C1710      C2044   1.510       .  S
Co1712    Cl1719   2.384       .  S
C1720      C1788   1.479       .  S
C1723      H1730   1.086       .  S
C1723      C1724   1.403       .  A
C1723      C1728   1.396       .  A
C1724      C1725   1.419       .  A
C1725      C1726   1.419       .  A
C1725      C1732   1.511       .  S
C1726      H1731   1.083       .  S
C1726      C1727   1.406       .  A
C1727      C1728   1.413       .  A
C1728      C1729   1.515       .  S
C1729      F1733   1.384       .  S
C1729      F1734   1.382       .  S
C1729      F1735   1.382       .  S
C1732      F1736   1.382       .  S
C1732      F1737   1.383       .  S
C1732      F1738   1.381       .  S
C1739      H1746   1.084       .  S
C1739      C1740   1.397       .  A
C1739      C1744   1.407       .  A
C1740      C1741   1.440       .  A
C1741      C1742   1.408       .  A
C1741      C1748   1.517       .  S
C1742      H1747   1.085       .  S
C1742      C1743   1.391       .  A
C1743      C1744   1.427       .  A
C1744      C1745   1.512       .  S
C1745      F1749   1.382   1_565  S
C1745      F1750   1.377   1_565  S
C1745      F1751   1.382       .  S
C1748      F1752   1.375       .  S
C1748      F1753   1.383       .  S
C1748      F1754   1.383       .  S
C1755      H1762   1.083       .  S
C1755      C1756   1.407       .  A
C1755      C1760   1.418       .  A
C1756      C1757   1.426       .  A
C1757      C1758   1.404       .  A
C1757      C1764   1.518       .  S
C1758      H1763   1.085       .  S
C1758      C1759   1.397       .  A
C1759      C1760   1.418       .  A
C1760      C1761   1.514       .  S
C1761      F1765   1.384       .  S
C1761      F1766   1.382       .  S
C1761      F1767   1.379       .  S
C1764      F1768   1.381       .  S
C1764      F1769   1.379       .  S
C1764      F1770   1.384       .  S
C1771      H1778   1.082       .  S
C1771      C1772   1.414       .  A
C1771      C1776   1.425       .  A
C1772      C1773   1.410       .  A
C1773      C1774   1.402       .  A
C1773      C1780   1.520       .  S
C1774      H1779   1.082       .  S
C1774      C1775   1.411       .  A
C1775      C1776   1.422       .  A
C1776      C1777   1.518       .  S
C1777      F1781   1.384       .  S
C1777      F1782   1.382       .  S
C1777      F1783   1.384       .  S
C1780      F1784   1.383       .  S
C1780      F1785   1.381       .  S
C1780      F1786   1.385       .  S
C1787      H1794   1.083       .  S
C1787      C1788   1.412       .  A
C1787      C1792   1.412       .  A
C1788      C1789   1.404       .  A
C1789      C1790   1.405       .  A
C1789      C1796   1.519       .  S
C1790      H1795   1.079       .  S
C1790      C1791   1.417       .  A
C1791      C1792   1.413       .  A
C1792      C1793   1.516       .  S
C1793      F1797   1.385       .  S
C1793      F1798   1.383       .  S
C1793      F1799   1.384       .  S
C1796      F1800   1.384       .  S
C1796      F1801   1.383       .  S
C1796      F1802   1.382       .  S
C1803      H1810   1.084       .  S
C1803      C1804   1.415       .  A
C1803      C1808   1.397       .  A
C1804      C1805   1.423       .  A
C1805      C1806   1.424       .  A
C1805      C1812   1.515       .  S
C1806      H1811   1.083       .  S
C1806      C1807   1.411       .  A
C1807      C1808   1.403       .  A
C1808      C1809   1.521       .  S
C1809      F1813   1.383       .  S
C1809      F1814   1.384       .  S
C1809      F1815   1.382       .  S
C1812      F1816   1.381       .  S
C1812      F1817   1.381       .  S
C1812      F1818   1.384       .  S
C1819      H1826   1.081       .  S
C1819      C1820   1.418       .  A
C1819      C1824   1.416       .  A
C1820      C1821   1.410       .  A
C1821      C1822   1.413       .  A
C1821      C1828   1.518       .  S
C1822      H1827   1.081       .  S
C1822      C1823   1.419       .  A
C1823      C1824   1.410       .  A
C1824      C1825   1.515       .  S
C1825      F1829   1.383       .  S
C1825      F1830   1.382       .  S
C1825      F1831   1.384       .  S
C1828      F1832   1.382       .  S
C1828      F1833   1.384       .  S
C1828      F1834   1.384       .  S
C1835      H1842   1.079       .  S
C1835      C1836   1.407       .  A
C1835      C1840   1.417       .  A
C1836      C1837   1.413       .  A
C1837      C1838   1.401       .  A
C1837      C1844   1.516       .  S
C1838      H1843   1.085       .  S
C1838      C1839   1.404       .  A
C1839      C1840   1.420       .  A
C1840      C1841   1.516       .  S
C1841      F1845   1.383       .  S
C1841      F1846   1.383       .  S
C1841      F1847   1.382       .  S
C1844      F1848   1.382       .  S
C1844      F1849   1.383       .  S
C1844      F1850   1.385       .  S
C1851      H1858   1.083       .  S
C1851      C1852   1.407       .  A
C1851      C1856   1.417       .  A
C1852      C1853   1.419       .  A
C1853      C1854   1.416       .  A
C1853      C1860   1.520       .  S
C1854      H1859   1.083       .  S
C1854      C1855   1.405       .  A
C1855      C1856   1.415       .  A
C1856      C1857   1.517       .  S
C1857      F2563   1.385   1_554  S
C1857      F1862   1.383       .  S
C1857      F2565   1.378   1_554  S
C1860      F1864   1.382       .  S
C1860      F1865   1.383       .  S
C1860      F1866   1.384       .  S
F1861      C2559   1.384       .  S
F1863      C2559   1.379       .  S
C1867      H1874   1.074       .  S
C1867      C1868   1.404       .  A
C1867      C1872   1.403       .  A
C1868      C1869   1.420       .  A
C1869      C1870   1.409       .  A
C1869      C1876   1.516       .  S
C1870      H1875   1.082       .  S
C1870      C1871   1.411       .  A
C1871      C1872   1.428       .  A
C1872      C1873   1.521       .  S
C1873      F1877   1.384   1_554  S
C1873      F1878   1.370       .  S
C1873      F2581   1.367   1_554  S
C1876      F1880   1.383       .  S
C1876      F1881   1.379       .  S
C1876      F1882   1.385       .  S
F1879      C2575   1.367       .  S
C1883      H1890   1.078       .  S
C1883      C1884   1.414       .  A
C1883      C1888   1.408       .  A
C1884      C1885   1.435       .  A
C1885      C1886   1.402       .  A
C1885      C1892   1.516       .  S
C1886      H1891   1.079       .  S
C1886      C1887   1.397       .  A
C1887      C1888   1.408       .  A
C1888      C1889   1.517       .  S
C1889      F1893   1.382       .  S
C1889      F1894   1.383       .  S
C1889      F1895   1.382       .  S
C1892      F1896   1.372       .  S
C1892      F2599   1.358       .  S
C1892      F2600   1.384       .  S
F1897      C2594   1.358       .  S
F1898      C2594   1.383   1_554  S
C1899      H1906   1.083       .  S
C1899      C1900   1.405       .  A
C1899      C1904   1.414       .  A
C1900      C1901   1.416       .  A
C1901      C1902   1.416       .  A
C1901      C1908   1.515       .  S
C1902      H1907   1.083       .  S
C1902      C1903   1.407       .  A
C1903      C1904   1.419       .  A
C1904      C1905   1.523       .  S
C1905      F1909   1.385       .  S
C1905      F1910   1.378       .  S
C1905      F1911   1.383       .  S
C1908      F1912   1.382       .  S
C1908      F2615   1.378       .  S
C1908      F2616   1.384       .  S
F1913      C2610   1.377   1_554  S
F1914      C2610   1.384   1_554  S
C1915      H1922   1.084       .  S
C1915      C1916   1.387       .  A
C1915      C1920   1.402       .  A
C1916      C1917   1.423       .  A
C1917      C1918   1.420       .  A
C1917      C1924   1.516       .  S
C1918      H1923   1.083       .  S
C1918      C1919   1.404       .  A
C1919      C1920   1.433       .  A
C1920      C1921   1.511       .  S
C1921      F1925   1.381       .  S
C1921      F1926   1.383       .  S
C1921      F1927   1.371       .  S
C1924      F1928   1.381       .  S
C1924      F1929   1.383       .  S
C1924      F1930   1.384       .  S
C1931      H1938   1.084       .  S
C1931      C1932   1.398       .  A
C1931      C1936   1.414       .  A
C1932      C1933   1.414       .  A
C1933      C1934   1.417       .  A
C1933      C1940   1.513       .  S
C1934      H1939   1.084       .  S
C1934      C1935   1.410       .  A
C1935      C1936   1.437       .  A
C1936      C1937   1.519       .  S
C1937      F1941   1.385       .  S
C1937      F1942   1.383       .  S
C1937      F1943   1.381       .  S
C1940      F1944   1.383       .  S
C1940      F1945   1.370       .  S
C1940      F1946   1.384       .  S
C1947      H1954   1.082       .  S
C1947      C1948   1.410       .  A
C1947      C1952   1.422       .  A
C1948      C1949   1.420       .  A
C1949      C1950   1.403       .  A
C1949      C1956   1.520       .  S
C1950      H1955   1.085       .  S
C1950      C1951   1.405       .  A
C1951      C1952   1.423       .  A
C1952      C1953   1.514       .  S
C1953      F1957   1.381       .  S
C1953      F1958   1.381   1_655  S
C1953      F1959   1.381       .  S
C1956      F1960   1.376       .  S
C1956      F1961   1.383       .  S
C1956      F1962   1.383       .  S
C1963      H1970   1.085       .  S
C1963      C1964   1.380       .  A
C1963      C1968   1.397       .  A
C1964      C1965   1.418       .  A
C1965      C1966   1.417       .  A
C1965      C1972   1.516       .  S
C1966      H1971   1.083       .  S
C1966      C1967   1.407       .  A
C1967      C1968   1.446       .  A
C1968      C1969   1.520       .  S
C1969      F1973   1.384       .  S
C1969      F1974   1.383       .  S
C1969      F1975   1.362       .  S
C1972      F1976   1.382       .  S
C1972      F1977   1.381       .  S
C1979      H1986   1.083       .  S
C1979      C1980   1.405       .  A
C1979      C1984   1.416       .  A
C1980      C1981   1.416       .  A
C1981      C1982   1.419       .  A
C1981      C1988   1.514       .  S
C1982      H1987   1.083       .  S
C1982      C1983   1.408       .  A
C1983      C1984   1.412       .  A
C1984      C1985   1.508       .  S
C1985      F2691   1.381       .  S
C1985      F2692   1.384       .  S
C1985      F1991   1.382       .  S
C1988      F1992   1.383       .  S
C1988      F1993   1.381       .  S
C1988      F1994   1.384       .  S
F1989      C2687   1.382       .  S
F1990      C2687   1.384       .  S
C1995      H2002   1.084       .  S
C1995      C1996   1.397       .  A
C1995      C2000   1.405       .  A
C1996      C1997   1.419       .  A
C1997      C1998   1.419       .  A
C1997      C2004   1.515       .  S
C1998      H2003   1.082       .  S
C1998      C1999   1.407       .  A
C1999      C2000   1.404       .  A
C2000      C2001   1.501       .  S
C2001      F2005   1.378       .  S
C2001      F2006   1.380       .  S
C2001      F2007   1.384       .  S
C2004      F2008   1.382       .  S
C2004      F2009   1.383       .  S
C2004      F2010   1.384       .  S
C2011      H2018   1.082       .  S
C2011      C2012   1.408       .  A
C2011      C2016   1.414       .  A
C2012      C2013   1.407       .  A
C2013      C2014   1.407       .  A
C2013      C2020   1.504       .  S
C2014      H2019   1.084       .  S
C2014      C2015   1.400       .  A
C2015      C2016   1.416       .  A
C2016      C2017   1.521       .  S
C2017      F2021   1.384       .  S
C2017      F2022   1.381       .  S
C2017      F2023   1.381       .  S
C2020      F2024   1.378       .  S
C2020      F2025   1.384       .  S
C2020      F2026   1.379       .  S
C2027      H2034   1.083       .  S
C2027      C2028   1.399       .  A
C2027      C2032   1.411       .  A
C2028      C2029   1.422       .  A
C2029      C2030   1.412       .  A
C2029      C2036   1.519       .  S
C2030      H2035   1.082       .  S
C2030      C2031   1.400       .  A
C2031      C2032   1.424       .  A
C2032      C2033   1.518       .  S
C2033      F2037   1.378       .  S
C2033      F2038   1.385       .  S
C2033      F2039   1.373       .  S
C2036      F2040   1.380       .  S
C2036      F2041   1.379       .  S
C2036      F2042   1.383       .  S
C2043      H2050   1.082       .  S
C2043      C2044   1.416       .  A
C2043      C2048   1.427       .  A
C2044      C2045   1.424       .  A
C2045      C2046   1.403       .  A
C2045      C2052   1.520       .  S
C2046      H2051   1.084       .  S
C2046      C2047   1.403       .  A
C2047      C2048   1.418       .  A
C2048      C2049   1.511       .  S
C2049      F2053   1.384       .  S
C2049      F2054   1.383       .  S
C2049      F2055   1.380       .  S
C2052      F2056   1.376       .  S
C2052      F2057   1.384       .  S
C2052      F2058   1.386       .  S
C2059      H2066   1.085       .  S
C2059      C2060   1.399       .  A
C2059      C2064   1.405       .  A
C2060      C2061   1.423       .  A
C2061      C2062   1.418       .  A
C2061      C2068   1.493       .  S
C2062      H2067   1.083       .  S
C2062      C2063   1.397       .  A
C2063      C2064   1.427       .  A
C2064      C2065   1.513       .  S
C2065      F2069   1.383       .  S
C2065      F2070   1.378       .  S
C2065      F2071   1.382       .  S
C2075      H2082   1.083       .  S
C2075      C2076   1.410       .  A
C2075      C2080   1.410       .  A
C2076      C2077   1.416       .  A
C2077      C2078   1.418       .  A
C2077      C2084   1.515       .  S
C2078      H2083   1.083       .  S
C2078      C2079   1.408       .  A
C2079      C2080   1.414       .  A
C2080      C2081   1.515       .  S
C2081      F2085   1.383       .  S
C2081      F2086   1.380       .  S
C2081      F2087   1.384       .  S
C2084      F2089   1.383       .  S
C2091      H2098   1.082       .  S
C2091      C2092   1.413       .  A
C2091      C2096   1.412       .  A
C2092      C2093   1.415       .  A
C2093      C2094   1.413       .  A
C2093      C2100   1.508       .  S
C2094      H2099   1.084       .  S
C2094      C2095   1.402       .  A
C2095      C2096   1.411       .  A
C2096      C2097   1.515       .  S
C2097      F2101   1.382       .  S
C2097      F2102   1.384       .  S
C2097      F2103   1.384       .  S
C2100      F2104   1.383       .  S
C2107      N2125   1.355       .  A
C2107      C2144   1.456       .  S
C2107      C2730   1.487       .  S
N2108      N2125   1.329       .  A
N2108      N2130   1.316       .  A
C2109      N2134   1.363       .  A
C2109      C2147   1.495       .  S
C2109      H2154   1.081       .  S
H2110      C2151   1.081       .  S
C2111      N2135   1.327       .  A
C2111      C2115   1.444       .  S
C2111      H2140   1.082       .  S
Co2112     N2130   2.072       .  S
Co2112     N2120   2.075       .  S
Co2112     N2152   2.077       .  S
Co2112     N2128   2.056       .  S
Co2112    Cl2156   2.395       .  S
N2113      C2151   1.352       .  A
N2113      N2120   1.325       .  A
N2113     Co2114   2.128       .  S
Co2114     N2134   2.161       .  S
Co2114    Cl2156   2.536       .  S
C2115      N2153   1.370       .  A
C2115      C2778   1.491       .  S
N2116      N2123   1.314       .  A
N2116      N2146   1.328       .  A
N2116     Co2149   2.079       .  S
N2117      N2135   1.319       .  A
N2117      N2153   1.336       .  A
N2118      C2147   1.333       .  A
N2118      N2128   1.314       .  A
H2119      C2144   1.081       .  S
N2120      N2141   1.319       .  A
N2121      N2139   1.322       .  A
N2121      N2126   1.341       .  A
C2122      N2126   1.368       .  A
C2122      C2150   1.443       .  S
C2122      C2749   1.502       .  S
N2123      C2138   1.349       .  A
N2123     Co2145   2.099   1_556  S
C2124      N2152   1.335       .  A
C2124      C2127   1.447       .  S
C2124      H2158   1.076       .  S
C2127      N2148   1.356       .  A
C2127      C2714   1.487       .  S
N2128      N2134   1.325       .  A
N2129      C2155   1.350       .  A
N2129      N2131   1.316       .  A
N2129     Co2145   2.107   1_556  S
N2130      C2144   1.340       .  A
N2131      N2159   1.329       .  A
N2131     Co2149   2.094       .  S
H2132      C2155   1.081       .  S
H2133      C2150   1.082       .  S
N2135     Co2149   2.055       .  S
N2136      N2148   1.331       .  A
N2136      N2152   1.315       .  A
C2137      N2141   1.342       .  A
C2137      C2151   1.477       .  S
C2137      C2797   1.482       .  S
C2138      C2157   1.465       .  S
C2138      H2142   1.080       .  S
N2139      C2150   1.323       .  A
N2139     Co2149   2.060       .  S
C2143      N2159   1.351       .  A
C2143      C2155   1.468       .  S
C2143      C2682   1.497       .  S
N2146      C2157   1.347       .  A
C2147      C2765   1.499       .  S
C2157      C2701   1.493       .  S
C2160      N2178   1.371       .  A
C2160      C2197   1.441       .  S
C2160      C2669   1.509       .  S
N2161      N2178   1.336       .  A
N2161      N2183   1.319       .  A
N2161     Co2198   2.153       .  S
C2162      N2187   1.351       .  A
C2162      C2200   1.472       .  S
C2162      H2207   1.074       .  S
H2163      C2204   1.080       .  S
C2164      N2188   1.340       .  A
C2164      C2168   1.449       .  S
C2164      H2193   1.078       .  S
Co2165     N2183   2.066       .  S
Co2165     N2173   2.084       .  S
Co2165     N2205   2.096       .  S
Co2165     N2181   2.076       .  S
Co2165    Cl2209   2.365       .  S
N2166      C2204   1.331       .  A
N2166      N2173   1.306       .  A
Co2167     N2170   2.121       .  S
Co2167     N2174   2.057       .  S
C2168      N2206   1.359       .  A
C2168      C2605   1.492       .  S
N2169      N2176   1.320       .  A
N2169      N2199   1.312       .  A
N2169     Co2202   2.085       .  S
N2170      N2188   1.318       .  A
N2170      N2206   1.332       .  A
N2171      C2200   1.343       .  A
N2171      N2181   1.326       .  A
H2172      C2197   1.076       .  S
N2173      N2194   1.328       .  A
N2174      N2192   1.310       .  A
N2174      N2179   1.320       .  A
C2175      N2179   1.349       .  A
C2175      C2203   1.468       .  S
C2175      C2589   1.488       .  S
N2176      C2191   1.356       .  A
C2177      N2205   1.334       .  A
C2177      C2180   1.443       .  S
C2177      H2211   1.081       .  S
C2180      N2201   1.366       .  A
C2180      C2634   1.495       .  S
N2181      N2187   1.318       .  A
N2182      C2208   1.362       .  A
N2182      N2184   1.324       .  A
N2183      C2197   1.329       .  A
N2184      N2212   1.314       .  A
N2184     Co2202   2.066       .  S
H2185      C2208   1.081       .  S
H2186      C2203   1.079       .  S
N2188     Co2202   2.076       .  S
N2189      N2201   1.336       .  A
N2189      N2205   1.320       .  A
N2189     Co2198   2.119       .  S
C2190      N2194   1.357       .  A
C2190      C2204   1.465       .  S
C2190      C2570   1.501       .  S
C2191      C2210   1.485       .  S
C2191      H2195   1.080       .  S
N2192      C2203   1.342       .  A
N2192     Co2202   2.077       .  S
C2196      N2212   1.333       .  A
C2196      C2208   1.492       .  S
C2196      C2621   1.502       .  S
Co2198    Cl2209   2.537       .  S
N2199      C2210   1.342       .  A
C2200      C2554   1.498       .  S
C2210      C2653   1.500       .  S
C2213      N2231   1.357       .  A
C2213      C2250   1.445       .  S
C2213      C2733   1.488       .  S
N2214      N2231   1.329       .  A
N2214      N2236   1.313       .  A
N2214     Co2251   2.122   1_545  S
C2215      N2240   1.362       .  A
C2215      C2253   1.495       .  S
C2215      H2260   1.079       .  S
H2216      C2257   1.081       .  S
C2217      N2241   1.332       .  A
C2217      C2221   1.446       .  S
C2217      H2246   1.082       .  S
Co2218     N2236   2.055   1_565  S
Co2218     N2226   2.058   1_565  S
Co2218     N2258   2.070       .  S
Co2218     N2234   2.036       .  S
Co2218    Cl2262   2.386   1_565  S
N2219      C2257   1.357       .  A
N2219      N2226   1.324       .  A
N2219     Co2220   2.126       .  S
Co2220     N2223   2.141       .  S
Co2220     N2240   2.146   1_545  S
Co2220     N2227   2.125   1_545  S
Co2220    Cl2262   2.521       .  S
C2221      N2259   1.366       .  A
C2221      C2522   1.505       .  S
N2222      N2229   1.311       .  A
N2222      N2252   1.322       .  A
N2222     Co2255   2.077       .  S
N2223      N2241   1.324       .  A
N2223      N2259   1.337       .  A
N2224      C2253   1.332       .  A
N2224      N2234   1.307       .  A
H2225      C2250   1.077       .  S
N2226      N2247   1.313       .  A
N2227      N2245   1.324       .  A
N2227      N2232   1.333       .  A
C2228      N2232   1.363       .  A
C2228      C2256   1.448       .  S
C2228      C2493   1.498       .  S
N2229      C2244   1.337       .  A
N2229     Co2251   2.070   1_545  S
C2230      N2258   1.341       .  A
C2230      C2233   1.457       .  S
C2230      H2264   1.079       .  S
C2233      N2254   1.355       .  A
C2233      C2717   1.481       .  S
N2234      N2240   1.322       .  A
N2235      C2261   1.342       .  A
N2235      N2237   1.314       .  A
N2235     Co2251   2.103       .  S
N2236      C2250   1.341       .  A
N2237      N2265   1.329       .  A
N2237     Co2255   2.076   1_565  S
H2238      C2261   1.070       .  S
H2239      C2256   1.080       .  S
N2241     Co2255   2.062       .  S
N2242      N2254   1.327       .  A
N2242      N2258   1.312       .  A
N2242     Co2251   2.091       .  S
C2243      N2247   1.330       .  A
C2243      C2257   1.481       .  S
C2243      C2538   1.475       .  S
C2244      C2263   1.467       .  S
C2244      H2248   1.069       .  S
N2245      C2256   1.325       .  A
N2245     Co2255   2.058   1_565  S
C2249      N2265   1.350       .  A
C2249      C2261   1.471       .  S
C2249      C2557   1.496       .  S
Co2251    Cl2262   2.501   1_565  S
N2252      C2263   1.356       .  A
C2253      C2506   1.503       .  S
Co2255    Cl2262   2.382       .  S
C2263      C2573   1.506       .  S
C2266      N2284   1.370       .  A
C2266      C2303   1.445       .  S
C2266      C2477   1.507       .  S
N2267      N2284   1.338       .  A
N2267      N2289   1.321       .  A
N2267     Co2304   2.140       .  S
C2268      N2293   1.346       .  A
C2268      C2306   1.465       .  S
C2268      H2313   1.077       .  S
H2269      C2310   1.079       .  S
C2270      N2294   1.339       .  A
C2270      C2274   1.446       .  S
C2270      H2299   1.077       .  S
Co2271     N2289   2.052   1_565  S
Co2271     N2279   2.081   1_565  S
Co2271     N2311   2.051       .  S
Co2271     N2287   2.075       .  S
Co2271    Cl2315   2.377       .  S
N2272      C2310   1.346       .  A
N2272      N2279   1.313       .  A
N2272     Co2273   2.089   1_545  S
Co2273     N2276   2.130   1_565  S
Co2273     N2293   2.112       .  S
Co2273     N2280   2.096       .  S
Co2273    Cl2315   2.489       .  S
C2274      N2312   1.365       .  A
C2274      C2602   1.497       .  S
N2275      N2282   1.325       .  A
N2275      N2305   1.316       .  A
N2275     Co2308   2.064   1_545  S
N2276      N2294   1.315       .  A
N2276      N2312   1.333       .  A
N2277      C2306   1.350       .  A
N2277      N2287   1.329       .  A
H2278      C2303   1.081       .  S
N2279      N2300   1.324       .  A
N2280      N2298   1.313       .  A
N2280      N2285   1.326       .  A
C2281      N2285   1.350       .  A
C2281      C2309   1.470       .  S
C2281      C2586   1.513       .  S
N2282      C2297   1.358       .  A
N2282     Co2304   2.140       .  S
C2283      N2311   1.328       .  A
C2283      C2286   1.440       .  S
C2283      H2317   1.081       .  S
C2286      N2307   1.364       .  A
C2286      C2445   1.486       .  S
N2287      N2293   1.314       .  A
N2288      C2314   1.356       .  A
N2288      N2290   1.325       .  A
N2288     Co2304   2.126   1_565  S
N2289      C2303   1.321       .  A
N2290      N2318   1.312       .  A
N2290     Co2308   2.048       .  S
H2291      C2314   1.081       .  S
H2292      C2309   1.079       .  S
N2294     Co2308   2.061   1_545  S
N2295      N2307   1.335       .  A
N2295      N2311   1.322       .  A
N2295     Co2304   2.130   1_565  S
C2296      N2300   1.348       .  A
C2296      C2310   1.471       .  S
C2296      C2698   1.486       .  S
C2297      C2316   1.484       .  S
C2297      H2301   1.081       .  S
N2298      C2309   1.344       .  A
N2298     Co2308   2.080       .  S
C2302      N2318   1.333       .  A
C2302      C2314   1.477       .  S
C2302      C2429   1.474       .  S
Co2304    Cl2315   2.529   1_545  S
N2305      C2316   1.335       .  A
C2306      C2685   1.496       .  S
Co2308    Cl2315   2.397       .  S
C2316      C2458   1.489       .  S
C2319      N2337   1.359       .  A
C2319      C2356   1.455       .  S
C2319      C2794   1.503       .  S
N2320      N2337   1.332       .  A
N2320      N2342   1.314       .  A
C2321      N2346   1.362       .  A
C2321      C2359   1.485       .  S
C2321      H2366   1.081       .  S
H2322      C2363   1.080       .  S
C2323      N2347   1.327       .  A
C2323      C2327   1.441       .  S
C2323      H2352   1.081       .  S
Co2324     N2342   2.074       .  S
Co2324     N2332   2.061       .  S
Co2324     N2364   2.092       .  S
Co2324     N2340   2.037       .  S
N2325      C2363   1.354       .  A
N2325      N2332   1.324       .  A
Co2326     N2329   2.164   1_455  S
Co2326     N2333   2.129   1_455  S
Co2326    Cl2368   2.524       .  S
C2327      N2365   1.373       .  A
C2327      C2525   1.510       .  S
N2328      N2335   1.314       .  A
N2328      N2358   1.324       .  A
N2328     Co2361   2.061       .  S
N2329      N2347   1.321       .  A
N2329      N2365   1.340       .  A
N2330      C2359   1.328       .  A
N2330      N2340   1.314       .  A
H2331      C2356   1.079       .  S
N2332      N2353   1.310       .  A
N2333      N2351   1.322       .  A
N2333      N2338   1.336       .  A
C2334      N2338   1.365       .  A
C2334      C2362   1.434       .  S
C2334      C2461   1.479       .  S
N2335      C2350   1.344       .  A
N2335     Co2357   2.087   1_655  S
C2336      N2364   1.346       .  A
C2336      C2339   1.461       .  S
C2336      H2370   1.080       .  S
C2339      N2360   1.349       .  A
C2339      C2781   1.490       .  S
N2340      N2346   1.327       .  A
N2341      C2367   1.355       .  A
N2341      N2343   1.314       .  A
N2341     Co2357   2.106   1_655  S
N2342      C2356   1.340       .  A
N2343      N2371   1.322       .  A
N2343     Co2361   2.075       .  S
H2344      C2367   1.079       .  S
H2345      C2362   1.078       .  S
N2347     Co2361   2.044       .  S
N2348      N2360   1.327       .  A
N2348      N2364   1.315       .  A
C2349      N2353   1.335       .  A
C2349      C2363   1.482       .  S
C2349      C2541   1.485       .  S
C2350      C2369   1.457       .  S
C2350      H2354   1.075       .  S
N2351      C2362   1.322       .  A
N2351     Co2361   2.048       .  S
C2355      N2371   1.346       .  A
C2355      C2367   1.471       .  S
C2355      C2650   1.501       .  S
Co2357    Cl2368   2.519       .  S
N2358      C2369   1.342       .  A
C2359      C2474   1.483       .  S
Co2361    Cl2368   2.373   1_655  S
C2369      C2666   1.476       .  S
C2372      N2390   1.360       .  A
C2372      C2409   1.435       .  S
C2372      C2509   1.477       .  S
N2373      N2390   1.335       .  A
N2373      N2395   1.323       .  A
N2373     Co2410   2.111       .  S
C2374      N2399   1.358       .  A
C2374      C2412   1.477       .  S
C2374      H2419   1.078       .  S
H2375      C2416   1.075       .  S
C2376      N2400   1.337       .  A
C2376      C2380   1.464       .  S
C2376      H2405   1.072       .  S
Co2377     N2395   2.059       .  S
Co2377     N2385   2.059       .  S
Co2377     N2417   2.044       .  S
Co2377     N2393   2.066       .  S
N2378      C2416   1.351       .  A
N2378      N2385   1.313       .  A
Co2379     N2382   2.132       .  S
Co2379     N2386   2.104       .  S
Co2379    Cl2421   2.498       .  S
C2380      N2418   1.367       .  A
C2380      C2637   1.522       .  S
N2381      N2388   1.325       .  A
N2381      N2411   1.315       .  A
N2381     Co2414   2.058       .  S
N2382      N2400   1.314       .  A
N2382      N2418   1.335       .  A
N2383      C2412   1.346       .  A
N2383      N2393   1.323       .  A
H2384      C2409   1.082       .  S
N2385      N2406   1.323       .  A
N2386      N2404   1.315       .  A
N2386      N2391   1.329       .  A
C2387      N2391   1.352       .  A
C2387      C2415   1.448       .  S
C2387      C2618   1.485       .  S
N2388      C2403   1.351       .  A
C2389      N2417   1.324       .  A
C2389      C2392   1.435       .  S
C2389      H2423   1.074       .  S
C2392      N2413   1.367       .  A
C2392      C2442   1.501       .  S
N2393      N2399   1.314       .  A
N2394      C2420   1.355       .  A
N2394      N2396   1.323       .  A
N2395      C2409   1.325       .  A
N2396      N2424   1.308       .  A
N2396     Co2414   2.048       .  S
H2397      C2420   1.080       .  S
H2398      C2415   1.079       .  S
N2400     Co2414   2.078       .  S
N2401      N2413   1.337       .  A
N2401      N2417   1.321       .  A
N2401     Co2410   2.137       .  S
C2402      N2406   1.344       .  A
C2402      C2416   1.478       .  S
C2402      C2762   1.503       .  S
C2403      C2422   1.474       .  S
C2403      H2407   1.081       .  S
N2404      C2415   1.342       .  A
N2404     Co2414   2.065       .  S
C2408      N2424   1.331       .  A
C2408      C2420   1.482       .  S
C2408      C2426   1.478       .  S
N2411      C2422   1.336       .  A
C2412      C2746   1.515       .  S
Co2414    Cl2421   2.383       .  S
C2422      C2490   1.479       .  S
C2425      H2432   1.086       .  S
C2425      C2426   1.400       .  A
C2425      C2430   1.394       .  A
C2426      C2427   1.421       .  A
C2427      C2428   1.419       .  A
C2427      C2434   1.512       .  S
C2428      H2433   1.083       .  S
C2428      C2429   1.406       .  A
C2429      C2430   1.413       .  A
C2430      C2431   1.514       .  S
C2431      F2435   1.384       .  S
C2431      F2436   1.382       .  S
C2431      F2437   1.383       .  S
C2434      F2438   1.381       .  S
C2434      F2439   1.382       .  S
C2434      F2440   1.383       .  S
C2441      H2448   1.085       .  S
C2441      C2442   1.395       .  A
C2441      C2446   1.405       .  A
C2442      C2443   1.440       .  A
C2443      C2444   1.408       .  A
C2443      C2450   1.517       .  S
C2444      H2449   1.085       .  S
C2444      C2445   1.391       .  A
C2445      C2446   1.426       .  A
C2446      C2447   1.511       .  S
C2447      F2451   1.382   1_565  S
C2447      F2452   1.376   1_565  S
C2447      F2453   1.382       .  S
C2450      F2454   1.375       .  S
C2450      F2455   1.383       .  S
C2450      F2456   1.384       .  S
C2457      H2464   1.083       .  S
C2457      C2458   1.406       .  A
C2457      C2462   1.417       .  A
C2458      C2459   1.425       .  A
C2459      C2460   1.403       .  A
C2459      C2466   1.518       .  S
C2460      H2465   1.086       .  S
C2460      C2461   1.398       .  A
C2461      C2462   1.419       .  A
C2462      C2463   1.513       .  S
C2463      F2467   1.384       .  S
C2463      F2468   1.381       .  S
C2463      F2469   1.380       .  S
C2466      F2470   1.382       .  S
C2466      F2471   1.376       .  S
C2466      F2472   1.383       .  S
C2473      H2480   1.082       .  S
C2473      C2474   1.414       .  A
C2473      C2478   1.425       .  A
C2474      C2475   1.408       .  A
C2475      C2476   1.402       .  A
C2475      C2482   1.519       .  S
C2476      H2481   1.082       .  S
C2476      C2477   1.412       .  A
C2477      C2478   1.422       .  A
C2478      C2479   1.518       .  S
C2479      F2483   1.384       .  S
C2479      F2484   1.383       .  S
C2479      F2485   1.383       .  S
C2482      F2486   1.383       .  S
C2482      F2487   1.382       .  S
C2482      F2488   1.385       .  S
C2489      H2496   1.083       .  S
C2489      C2490   1.412       .  A
C2489      C2494   1.411       .  A
C2490      C2491   1.404       .  A
C2491      C2492   1.404       .  A
C2491      C2498   1.518       .  S
C2492      H2497   1.079       .  S
C2492      C2493   1.417       .  A
C2493      C2494   1.412       .  A
C2494      C2495   1.516       .  S
C2495      F2499   1.385       .  S
C2495      F2500   1.383       .  S
C2495      F2501   1.384       .  S
C2498      F2502   1.383       .  S
C2498      F2503   1.383       .  S
C2498      F2504   1.382       .  S
C2505      H2512   1.083       .  S
C2505      C2506   1.415       .  A
C2505      C2510   1.398       .  A
C2506      C2507   1.423       .  A
C2507      C2508   1.424       .  A
C2507      C2514   1.516       .  S
C2508      H2513   1.083       .  S
C2508      C2509   1.411       .  A
C2509      C2510   1.405       .  A
C2510      C2511   1.522       .  S
C2511      F2515   1.383       .  S
C2511      F2516   1.383       .  S
C2511      F2517   1.382       .  S
C2514      F2518   1.381       .  S
C2514      F2519   1.381       .  S
C2514      F2520   1.384       .  S
C2521      H2528   1.082       .  S
C2521      C2522   1.417       .  A
C2521      C2526   1.417       .  A
C2522      C2523   1.410       .  A
C2523      C2524   1.413       .  A
C2523      C2530   1.518       .  S
C2524      H2529   1.080       .  S
C2524      C2525   1.419       .  A
C2525      C2526   1.411       .  A
C2526      C2527   1.514       .  S
C2527      F2531   1.382       .  S
C2527      F2532   1.382       .  S
C2527      F2533   1.383       .  S
C2530      F2534   1.382       .  S
C2530      F2535   1.384       .  S
C2530      F2536   1.384       .  S
C2537      H2544   1.079       .  S
C2537      C2538   1.407       .  A
C2537      C2542   1.416       .  A
C2538      C2539   1.412       .  A
C2539      C2540   1.400       .  A
C2539      C2546   1.516       .  S
C2540      H2545   1.085       .  S
C2540      C2541   1.406       .  A
C2541      C2542   1.419       .  A
C2542      C2543   1.516       .  S
C2543      F2547   1.383       .  S
C2543      F2548   1.382       .  S
C2543      F2549   1.382       .  S
C2546      F2550   1.381       .  S
C2546      F2551   1.384       .  S
C2546      F2552   1.385       .  S
C2553      H2560   1.083       .  S
C2553      C2554   1.407       .  A
C2553      C2558   1.416       .  A
C2554      C2555   1.420       .  A
C2555      C2556   1.416       .  A
C2555      C2562   1.521       .  S
C2556      H2561   1.083       .  S
C2556      C2557   1.405       .  A
C2557      C2558   1.415       .  A
C2558      C2559   1.519       .  S
C2559      F2564   1.383       .  S
C2562      F2566   1.382       .  S
C2562      F2567   1.382       .  S
C2562      F2568   1.385       .  S
C2569      H2576   1.075       .  S
C2569      C2570   1.404       .  A
C2569      C2574   1.404       .  A
C2570      C2571   1.418       .  A
C2571      C2572   1.407       .  A
C2571      C2578   1.516       .  S
C2572      H2577   1.082       .  S
C2572      C2573   1.411       .  A
C2573      C2574   1.428       .  A
C2574      C2575   1.520       .  S
C2575      F2579   1.384       .  S
C2575      F2580   1.371       .  S
C2578      F2582   1.383       .  S
C2578      F2583   1.379       .  S
C2578      F2584   1.385       .  S
C2585      H2592   1.076       .  S
C2585      C2586   1.414       .  A
C2585      C2590   1.408       .  A
C2586      C2587   1.437       .  A
C2587      C2588   1.404       .  A
C2587      C2594   1.518       .  S
C2588      H2593   1.080       .  S
C2588      C2589   1.397       .  A
C2589      C2590   1.407       .  A
C2590      C2591   1.516       .  S
C2591      F2595   1.381       .  S
C2591      F2596   1.383       .  S
C2591      F2597   1.382       .  S
C2594      F2598   1.374       .  S
C2601      H2608   1.083       .  S
C2601      C2602   1.405       .  A
C2601      C2606   1.414       .  A
C2602      C2603   1.415       .  A
C2603      C2604   1.416       .  A
C2603      C2610   1.514       .  S
C2604      H2609   1.083       .  S
C2604      C2605   1.407       .  A
C2605      C2606   1.417       .  A
C2606      C2607   1.524       .  S
C2607      F2611   1.385       .  S
C2607      F2612   1.378       .  S
C2607      F2613   1.383       .  S
C2610      F2614   1.382       .  S
C2617      H2624   1.084       .  S
C2617      C2618   1.387       .  A
C2617      C2622   1.402       .  A
C2618      C2619   1.423       .  A
C2619      C2620   1.420       .  A
C2619      C2626   1.516       .  S
C2620      H2625   1.083       .  S
C2620      C2621   1.404       .  A
C2621      C2622   1.432       .  A
C2622      C2623   1.511       .  S
C2623      F2627   1.380       .  S
C2623      F2628   1.382       .  S
C2623      F2629   1.371       .  S
C2626      F2630   1.381       .  S
C2626      F2631   1.383       .  S
C2626      F2632   1.384       .  S
C2633      H2640   1.084       .  S
C2633      C2634   1.399       .  A
C2633      C2638   1.415       .  A
C2634      C2635   1.414       .  A
C2635      C2636   1.418       .  A
C2635      C2642   1.513       .  S
C2636      H2641   1.083       .  S
C2636      C2637   1.410       .  A
C2637      C2638   1.437       .  A
C2638      C2639   1.519       .  S
C2639      F2643   1.385       .  S
C2639      F2644   1.383       .  S
C2639      F2645   1.382       .  S
C2642      F2646   1.383       .  S
C2642      F2647   1.370       .  S
C2642      F2648   1.384       .  S
C2649      H2656   1.082       .  S
C2649      C2650   1.412       .  A
C2649      C2654   1.424       .  A
C2650      C2651   1.419       .  A
C2651      C2652   1.401       .  A
C2651      C2658   1.520       .  S
C2652      H2657   1.085       .  S
C2652      C2653   1.404       .  A
C2653      C2654   1.424       .  A
C2654      C2655   1.514       .  S
C2655      F2659   1.381       .  S
C2655      F2660   1.379   1_655  S
C2655      F2661   1.382       .  S
C2658      F2662   1.375       .  S
C2658      F2663   1.384       .  S
C2658      F2664   1.383       .  S
C2665      H2672   1.085       .  S
C2665      C2666   1.381       .  A
C2665      C2670   1.398       .  A
C2666      C2667   1.418       .  A
C2667      C2668   1.418       .  A
C2667      C2674   1.516       .  S
C2668      H2673   1.083       .  S
C2668      C2669   1.407       .  A
C2669      C2670   1.446       .  A
C2670      C2671   1.520       .  S
C2671      F2675   1.383       .  S
C2671      F2676   1.383       .  S
C2671      F2677   1.362       .  S
C2674      F2678   1.383       .  S
C2674      F2679   1.380       .  S
C2681      H2688   1.083       .  S
C2681      C2682   1.405       .  A
C2681      C2686   1.415       .  A
C2682      C2683   1.417       .  A
C2683      C2684   1.419       .  A
C2683      C2690   1.514       .  S
C2684      H2689   1.083       .  S
C2684      C2685   1.408       .  A
C2685      C2686   1.412       .  A
C2686      C2687   1.509       .  S
C2687      F2693   1.382       .  S
C2690      F2694   1.383       .  S
C2690      F2695   1.382       .  S
C2690      F2696   1.384       .  S
C2697      H2704   1.084       .  S
C2697      C2698   1.397       .  A
C2697      C2702   1.406       .  A
C2698      C2699   1.419       .  A
C2699      C2700   1.420       .  A
C2699      C2706   1.516       .  S
C2700      H2705   1.082       .  S
C2700      C2701   1.409       .  A
C2701      C2702   1.404       .  A
C2702      C2703   1.501       .  S
C2703      F2707   1.377       .  S
C2703      F2708   1.380       .  S
C2703      F2709   1.384       .  S
C2706      F2710   1.383       .  S
C2706      F2711   1.383       .  S
C2706      F2712   1.384       .  S
C2713      H2720   1.083       .  S
C2713      C2714   1.408       .  A
C2713      C2718   1.414       .  A
C2714      C2715   1.408       .  A
C2715      C2716   1.408       .  A
C2715      C2722   1.505       .  S
C2716      H2721   1.084       .  S
C2716      C2717   1.401       .  A
C2717      C2718   1.416       .  A
C2718      C2719   1.519       .  S
C2719      F2723   1.384       .  S
C2719      F2724   1.381       .  S
C2719      F2725   1.380       .  S
C2722      F2726   1.378       .  S
C2722      F2727   1.384       .  S
C2722      F2728   1.380       .  S
C2729      H2736   1.083       .  S
C2729      C2730   1.401       .  A
C2729      C2734   1.412       .  A
C2730      C2731   1.421       .  A
C2731      C2732   1.410       .  A
C2731      C2738   1.519       .  S
C2732      H2737   1.083       .  S
C2732      C2733   1.399       .  A
C2733      C2734   1.425       .  A
C2734      C2735   1.520       .  S
C2735      F2739   1.378       .  S
C2735      F2740   1.385       .  S
C2735      F2741   1.373       .  S
C2738      F2742   1.381       .  S
C2738      F2743   1.381       .  S
C2738      F2744   1.383       .  S
C2745      H2752   1.082       .  S
C2745      C2746   1.417       .  A
C2745      C2750   1.427       .  A
C2746      C2747   1.427       .  A
C2747      C2748   1.403       .  A
C2747      C2754   1.518       .  S
C2748      H2753   1.084       .  S
C2748      C2749   1.399       .  A
C2749      C2750   1.418       .  A
C2750      C2751   1.512       .  S
C2751      F2755   1.384       .  S
C2751      F2756   1.383       .  S
C2751      F2757   1.380       .  S
C2754      F2758   1.374       .  S
C2754      F2759   1.383       .  S
C2754      F2760   1.386       .  S
C2761      H2768   1.085       .  S
C2761      C2762   1.399       .  A
C2761      C2766   1.404       .  A
C2762      C2763   1.422       .  A
C2763      C2764   1.418       .  A
C2763      C2770   1.496       .  S
C2764      H2769   1.083       .  S
C2764      C2765   1.399       .  A
C2765      C2766   1.427       .  A
C2766      C2767   1.513       .  S
C2767      F2771   1.382       .  S
C2767      F2772   1.379       .  S
C2767      F2773   1.382       .  S
C2777      H2784   1.084       .  S
C2777      C2778   1.410       .  A
C2777      C2782   1.409       .  A
C2778      C2779   1.416       .  A
C2779      C2780   1.415       .  A
C2779      C2786   1.515       .  S
C2780      H2785   1.083       .  S
C2780      C2781   1.407       .  A
C2781      C2782   1.412       .  A
C2782      C2783   1.515       .  S
C2783      F2787   1.383       .  S
C2783      F2788   1.379       .  S
C2783      F2789   1.384       .  S
C2786      F2791   1.383       .  S
C2793      H2800   1.083       .  S
C2793      C2794   1.411       .  A
C2793      C2798   1.409       .  A
C2794      C2795   1.416       .  A
C2795      C2796   1.414       .  A
C2795      C2802   1.508       .  S
C2796      H2801   1.084       .  S
C2796      C2797   1.402       .  A
C2797      C2798   1.413       .  A
C2798      C2799   1.515       .  S
C2799      F2803   1.383       .  S
C2799      F2804   1.383       .  S
C2799      F2805   1.384       .  S
C2802      F2806   1.383       .  S
