geometry optimzed in LAMMPS
_audit_creation_date              2020-11-30 
_audit_creation_method            'lammps2cif' 
_symmetry_space_group_name_H-M    'P1' 
_symmetry_Int_Tables_number       1 
_symmetry_cell_setting            triclinic 
loop_ 
_symmetry_equiv_pos_as_xyz 
  x,y,z 
_cell_length_a                    23.62901409 
_cell_length_b                    23.80716080469965 
_cell_length_c                    23.420262971164508 
_cell_angle_alpha                 89.59018970347532 
_cell_angle_beta                  89.98747296392692 
_cell_angle_gamma                 90.31235007366223 
loop_ 
_atom_site_label 
_atom_site_type_symbol 
_atom_site_fract_x 
_atom_site_fract_y 
_atom_site_fract_z 
_atom_site_charge 
C1          C  0.16693981  0.16270186  0.16752959     0.46100
H2          H  0.19194324  0.18733814  0.19832828    -0.03000
C3          C  0.10656075  0.10117199  0.10062398     0.46100
H4          H  0.07964229  0.07916645  0.06984029    -0.03000
C5          C  0.15586176  0.10200708  0.19201954    -0.16700
C6          C  0.10726096  0.18794396  0.15599265    -0.16400
C7          C  0.19527181  0.15595432  0.10662767    -0.16800
C8          C  0.12198205  0.06865229  0.15680322    -0.16800
C9          C  0.07643108  0.15648404  0.11814015    -0.16300
C10         C  0.16411659  0.11828793  0.07358780    -0.16700
C11         C  0.84863668  0.66417232  0.33396872     0.46100
H12         H  0.82427704  0.68772492  0.30144645    -0.03000
C13         C  0.90648338  0.60599690  0.40611127     0.46100
H14         H  0.92920378  0.58113907  0.43892032    -0.03000
C15         C  0.86701780  0.60528631  0.30996183    -0.16700
C16         C  0.90485879  0.69476526  0.35291146    -0.16400
C17         C  0.81463620  0.65230664  0.39124881    -0.16800
C18         C  0.90206318  0.57594867  0.34725538    -0.16800
C19         C  0.93365160  0.66455907  0.39433766    -0.16300
C20         C  0.84564590  0.61771412  0.42758900    -0.16700
C21         C  0.91966989  0.26427265  0.95068519    -0.01900
C22         C  0.75160993  0.44690607  0.59172045    -0.01900
C23         C  0.56882554  0.08644046  0.74426808    -0.01900
Zn24       Zn  0.97886518  0.06635784  0.57036272     1.49700
Zn25       Zn  0.97022113  0.16419270  0.62410468     1.49400
Zn26       Zn  0.86929557  0.13228285  0.54124730     1.49100
Zn27       Zn  0.88439313  0.06023710  0.65712881     1.49500
O28         O  0.91964602  0.10619329  0.59927727    -1.83500
O29         O  0.05252437  0.08121557  0.60621194    -0.74200
O30         O  0.93024514  0.23531279  0.61804690    -0.74000
O31         O  0.89620859  0.09924005  0.46428083    -0.73500
O32         O  0.04504244  0.16812863  0.57946627    -0.74200
O33         O  0.98463901  0.07855205  0.48812011    -0.73800
O34         O  0.86673943  0.21690057  0.54977476    -0.74400
O35         O  0.80047196  0.06696797  0.64654620    -0.73800
O36         O  0.97996043  0.15230773  0.70698666    -0.74500
O37         O  0.78832544  0.10941684  0.56211005    -0.73900
O38         O  0.90569557  0.09708491  0.73006049    -0.74400
O39         O  0.90568649  0.97695743  0.65402145    -0.74300
O40         O  0.96517552  0.98900014  0.58210046    -0.74100
C41         C  0.07455065  0.12386317  0.58285900     0.77700
C42         C  0.88907678  0.24955569  0.58668477     0.78200
C43         C  0.94512961  0.07969068  0.45163709     0.77200
C44         C  0.76848717  0.08691941  0.60761846     0.77500
C45         C  0.94408935  0.13274076  0.74268378     0.78700
C46         C  0.93817880  0.95722314  0.61585130     0.77700
C47         C  0.66439502  0.34707296  0.84342032     0.46100
H48         H  0.69016401  0.32584285  0.81099820    -0.03000
C49         C  0.60404956  0.40443784  0.91328135     0.46100
H50         H  0.57926634  0.42646481  0.94617267    -0.03000
C51         C  0.60664514  0.31650105  0.85611759    -0.16700
C52         C  0.69410669  0.35409477  0.90387742    -0.16400
C53         C  0.64926785  0.40821947  0.82085086    -0.16800
C54         C  0.57619703  0.34713528  0.89550238    -0.16800
C55         C  0.66404431  0.39129487  0.93755945    -0.16300
C56         C  0.61251654  0.43770247  0.85653098    -0.16700
C57         C  0.25694192  0.94590836  0.92301736    -0.01900
C58         C  0.42958731  0.58608549  0.77031059    -0.01900
C59         C  0.07471947  0.76450459  0.57933427    -0.01900
Zn60       Zn  0.03493135  0.68558796  0.90009339     1.49700
Zn61       Zn  0.02022604  0.60506955  0.98337129     1.49400
Zn62       Zn  0.10546140  0.57108500  0.88942543     1.49100
Zn63       Zn  0.13893373  0.65519476  0.98627701     1.49500
O64         O  0.07841646  0.62966270  0.93825041    -1.83500
O65         O  0.94800150  0.68040246  0.91107780    -0.74200
O66         O  0.98660052  0.53509644  0.95233984    -0.74000
O67         O  0.10490565  0.59961561  0.80867872    -0.73500
O68         O  0.96506524  0.66357764  0.00134527    -0.74200
O69         O  0.05970890  0.68093532  0.82058357    -0.73800
O70         O  0.05690981  0.50200914  0.89922722    -0.74400
O71         O  0.21136621  0.63835443  0.94316137    -0.73800
O72         O  0.05082353  0.58102785  0.05307206    -0.74500
O73         O  0.18853347  0.55651217  0.90361515    -0.73900
O74         O  0.13887746  0.61179465  0.06295408    -0.74400
O75         O  0.13000033  0.73935735  0.99207320    -0.74300
O76         O  0.06215386  0.75924666  0.92871458    -0.74100
C77         C  0.93075599  0.67741952  0.96252975     0.77700
C78         C  0.00941069  0.49554382  0.92444222     0.78200
C79         C  0.08818221  0.64708500  0.79029299     0.77200
C80         C  0.22468657  0.59494825  0.91446418     0.77500
C81         C  0.09688861  0.58219505  0.07991685     0.78700
C82         C  0.10022339  0.77470979  0.96378583     0.77700
C83         C  0.41998652  0.25653099  0.07093483    -0.01900
C84         C  0.25582137  0.06308573  0.42403498    -0.01900
C85         C  0.06851692  0.41434181  0.25899278    -0.01900
Zn86       Zn  0.44444342  0.35922023  0.48881367     1.49700
Zn87       Zn  0.47128095  0.43105549  0.37604119     1.49400
Zn88       Zn  0.36594762  0.36492981  0.38939183     1.49100
Zn89       Zn  0.36821796  0.46545144  0.45713144     1.49500
O90         O  0.41598780  0.40727672  0.43067658    -1.83500
O91         O  0.52815629  0.36053128  0.48387432    -0.74200
O92         O  0.45541443  0.40254165  0.29746319    -0.74000
O93         O  0.39032708  0.28731594  0.39073430    -0.73500
O94         O  0.54713552  0.40770460  0.40321460    -0.74200
O95         O  0.41558098  0.28032558  0.48153537    -0.73800
O96         O  0.36323379  0.39101453  0.30924654    -0.74400
O97         O  0.29264094  0.46111761  0.41563695    -0.73800
O98         O  0.47577254  0.51354062  0.37781814    -0.74500
O99         O  0.28890699  0.36877490  0.42139973    -0.73900
O100        O  0.41105809  0.53672983  0.44316193    -0.74400
O101        O  0.36166976  0.46022503  0.54196298    -0.74300
O102        O  0.42557035  0.39431473  0.56326305    -0.74100
C103        C  0.56268390  0.38366363  0.44920891     0.77700
C104        C  0.40686276  0.38999588  0.27787991     0.78200
C105        C  0.39910928  0.25800741  0.43515934     0.77200
C106        C  0.26614719  0.41493254  0.40810848     0.77500
C107        C  0.45321250  0.54862554  0.41132112     0.78700
C108        C  0.39357684  0.43478794  0.57743547     0.77700
C109        C  0.33901609  0.83335071  0.66475997     0.46100
H110        H  0.31132601  0.80415270  0.68886809    -0.03000
C111        C  0.40188083  0.89934694  0.60446394     0.46100
H112        H  0.43238956  0.92551737  0.58098076    -0.03000
C113        C  0.35167872  0.89090382  0.69575923    -0.16700
C114        C  0.39802394  0.80629196  0.64939544    -0.16400
C115        C  0.30994211  0.85020284  0.60697451    -0.16800
C116        C  0.39023094  0.92431222  0.66537988    -0.16800
C117        C  0.42938355  0.84100124  0.61394431    -0.16300
C118        C  0.34239906  0.88796107  0.57460223    -0.16700
C119        C  0.95799622  0.92496027  0.25591817    -0.01900
C120        C  0.59091576  0.75265001  0.44063437    -0.01900
C121        C  0.76190273  0.57086831  0.08328867    -0.01900
Zn122      Zn  0.59908146  0.86491115  0.01217712     1.49700
Zn123      Zn  0.64634090  0.98028778  0.06108834     1.49400
Zn124      Zn  0.53203735  0.92157347  0.11566534     1.49100
Zn125      Zn  0.64005904  0.87703034  0.13248086     1.49500
O126        O  0.60255670  0.91449876  0.07578503    -1.83500
O127        O  0.63789357  0.90066099  0.94436534    -0.74200
O128        O  0.59627305  0.04395632  0.08617477    -0.74000
O129        O  0.47141381  0.89496629  0.06284315    -0.73500
O130        O  0.65459502  0.98758183  0.97501215    -0.74200
O131        O  0.51825975  0.86086509  0.98781028    -0.73800
O132        O  0.51878141  0.00359603  0.12442358    -0.74400
O133        O  0.61996424  0.90296681  0.20946737    -0.73800
O134        O  0.72352092  0.97570661  0.10213266    -0.74500
O135        O  0.53112617  0.88054132  0.19307207    -0.73900
O136        O  0.72110521  0.88482699  0.12420726    -0.74400
O137        O  0.62091818  0.79779234  0.12841997    -0.74300
O138        O  0.62806607  0.78792797  0.03458800    -0.74100
C139        C  0.64891582  0.95236308  0.93448840     0.77700
C140        C  0.54647259  0.04661257  0.10745204     0.78200
C141        C  0.47275949  0.87598614  0.01215707     0.77200
C142        C  0.57347616  0.88261045  0.22665736     0.77500
C143        C  0.74689035  0.93149675  0.12243505     0.78700
C144        C  0.63026800  0.76775714  0.08518820     0.77700
C145        C  0.64976696  0.71036523  0.09529985     0.00400
C146        C  0.63502140  0.66807217  0.05747834    -0.11400
C147        C  0.66196495  0.61594388  0.05936668     0.02700
C148        C  0.70787858  0.60624899  0.09842208     0.00300
C149        C  0.71454571  0.64713094  0.14188545    -0.11400
C150        C  0.68754606  0.69855086  0.14002373     0.02600
H151        H  0.60307364  0.67639444  0.02522938     0.15500
H152        H  0.74773582  0.64442752  0.17326789     0.15500
C153        C  0.70691297  0.74099847  0.17962152     0.37200
C154        C  0.63793857  0.57482634  0.02153922     0.37100
N155        N  0.72316917  0.77477394  0.21098663    -0.43200
N156        N  0.61489388  0.54438001  0.99088677    -0.43200
C157        C  0.58845158  0.78923058  0.38398552     0.00400
C158        C  0.56932976  0.84586637  0.38412726    -0.11400
C159        C  0.56095031  0.87631522  0.33338982     0.02700
C160        C  0.57385951  0.85165542  0.28093884     0.00300
C161        C  0.59740082  0.79809163  0.28001025    -0.11400
C162        C  0.60665347  0.76758532  0.33008766     0.02600
H163        H  0.56063664  0.86735607  0.42365597     0.15500
H164        H  0.60916962  0.77996583  0.23944919     0.15500
C165        C  0.63147890  0.71249019  0.32353515     0.37200
C166        C  0.53945668  0.93285670  0.33618397     0.37100
N167        N  0.65109184  0.66850574  0.31734156    -0.43200
N168        N  0.52202016  0.97810553  0.33855643    -0.43200
C169        C  0.90243595  0.92967138  0.21893802     0.00400
C170        C  0.89909724  0.95953827  0.16592832    -0.11400
C171        C  0.84986380  0.96029283  0.13246012     0.02700
C172        C  0.80107402  0.93354125  0.15289151     0.00300
C173        C  0.80108097  0.91097238  0.20808851    -0.11400
C174        C  0.84907565  0.91311640  0.24233569     0.02600
H175        H  0.93156452  0.98893132  0.15319661     0.15500
H176        H  0.76150577  0.89613564  0.22658775     0.15500
C177        C  0.83795533  0.91183160  0.30293760     0.37200
C178        C  0.84992211  0.99062482  0.07884874     0.37100
N179        N  0.82657883  0.91303968  0.35100831    -0.43200
N180        N  0.85009885  0.01513823  0.03599552    -0.43200
C181        C  0.55600977  0.78420220  0.48851231     0.00400
C182        C  0.49778575  0.79084638  0.47609581    -0.11400
C183        C  0.45794456  0.80747856  0.51606239     0.02700
C184        C  0.47401078  0.82081962  0.57225424     0.00300
C185        C  0.53271849  0.82030969  0.58469149    -0.11400
C186        C  0.57369874  0.80303377  0.54329818     0.02600
H187        H  0.48222479  0.78010474  0.43401022     0.15500
H188        H  0.54665915  0.83359720  0.62654724     0.15500
C189        C  0.63275104  0.80774876  0.55749786     0.37200
C190        C  0.39985989  0.80341654  0.49811646     0.37100
N191        N  0.68012733  0.81271308  0.56904986    -0.43200
N192        N  0.35449067  0.79623826  0.48124403    -0.43200
C193        C  0.55472032  0.69692212  0.43276777     0.00400
C194        C  0.52169213  0.68814269  0.38238934    -0.11400
C195        C  0.48810489  0.64066669  0.37442381     0.02700
C196        C  0.48227530  0.60195261  0.41872577     0.00300
C197        C  0.50904006  0.61139835  0.47070482    -0.11400
C198        C  0.54296412  0.65878935  0.47909954     0.02600
H199        H  0.51804457  0.71932609  0.34919839     0.15500
H200        H  0.50204267  0.58199693  0.50575052     0.15500
C201        C  0.55438236  0.67068988  0.53828801     0.37200
C202        C  0.45798247  0.63369045  0.32121371     0.37100
N203        N  0.55973673  0.67863457  0.58671286    -0.43200
N204        N  0.43378397  0.62803984  0.27867093    -0.43200
C205        C  0.12353591  0.40781707  0.29528425     0.00400
C206        C  0.11996001  0.38341941  0.35055477    -0.11400
C207        C  0.16514849  0.38655286  0.38907094     0.02700
C208        C  0.21561868  0.41314167  0.37219246     0.00300
C209        C  0.22266858  0.42921330  0.31527184    -0.11400
C210        C  0.17882684  0.42362346  0.27598273     0.02600
H211        H  0.08025264  0.36641869  0.36579384     0.15500
H212        H  0.26366105  0.44446543  0.30085116     0.15500
C213        C  0.19377396  0.43438945  0.21706342     0.37200
C214        C  0.15803376  0.36435995  0.44614732     0.37100
N215        N  0.20755823  0.44351855  0.17045274    -0.43200
N216        N  0.15228109  0.34655132  0.49189815    -0.43200
C217        C  0.28555040  0.00607160  0.44186610     0.00400
C218        C  0.25319158  0.95715858  0.45087196    -0.11400
C219        C  0.27326959  0.91266309  0.48586039     0.02700
C220        C  0.32451772  0.91915752  0.51854219     0.00300
C221        C  0.36168759  0.95986836  0.49567437    -0.11400
C222        C  0.34435197  0.00008223  0.45546588     0.02600
H223        H  0.21125465  0.95450255  0.43221446     0.15500
H224        H  0.40563403  0.96076493  0.50707481     0.15500
C225        C  0.38955982  0.03180794  0.42852096     0.37200
C226        C  0.24894566  0.85900733  0.47192427     0.37100
N227        N  0.42704914  0.05599612  0.40788942    -0.43200
N228        N  0.22894020  0.81753858  0.45588077    -0.43200
C229        C  0.30119571  0.11042800  0.42800672     0.00400
C230        C  0.32231102  0.13673221  0.37844026    -0.11400
C231        C  0.36587129  0.17545530  0.38119496     0.02700
C232        C  0.38101354  0.19918405  0.43347134     0.00300
C233        C  0.36293800  0.17315994  0.48366081    -0.11400
C234        C  0.32581128  0.12747352  0.48163812     0.02600
H235        H  0.30724094  0.12763966  0.33665777     0.15500
H236        H  0.37625094  0.18958448  0.52463163     0.15500
C237        C  0.31616979  0.09924750  0.53564532     0.37200
C238        C  0.39594266  0.18803877  0.32952307     0.37100
N239        N  0.31072971  0.07746722  0.57968169    -0.43200
N240        N  0.42005408  0.19547790  0.28738791    -0.43200
C241        C  0.51555296  0.09942772  0.10198528     0.00400
C242        C  0.49943641  0.13013368  0.14944684    -0.11400
C243        C  0.47340803  0.18268376  0.14247969     0.02700
C244        C  0.45016527  0.19924334  0.08760940     0.00300
C245        C  0.46677178  0.16529903  0.04117481    -0.11400
C246        C  0.50180849  0.11922395  0.04755024     0.02600
H247        H  0.51412640  0.11661987  0.19123994     0.15500
H248        H  0.46025855  0.17953388  0.99801566     0.15500
C249        C  0.52885981  0.09705548  0.99746312     0.37200
C250        C  0.48751832  0.22110764  0.18776566     0.37100
N251        N  0.55356097  0.08097374  0.95836764    -0.43200
N252        N  0.50205832  0.25183654  0.22307286    -0.43200
C253        C  0.41751927  0.29739655  0.12302592     0.00400
C254        C  0.38668460  0.27767639  0.17123036    -0.11400
C255        C  0.37520862  0.31148101  0.21752628     0.02700
C256        C  0.40242640  0.36373936  0.22188236     0.00300
C257        C  0.43187968  0.38551541  0.17495873    -0.11400
C258        C  0.43505835  0.35522241  0.12392599     0.02600
H259        H  0.36925504  0.23538452  0.17131181     0.15500
H260        H  0.44992848  0.42743896  0.17739736     0.15500
C261        C  0.44999848  0.38781141  0.07386505     0.37200
C262        C  0.33585075  0.29086075  0.26020581     0.37100
N263        N  0.46118922  0.41518917  0.03433403    -0.43200
N264        N  0.30328733  0.27521518  0.29374265    -0.43200
C265        C  0.87076803  0.68083830  0.97939392     0.00400
C266        C  0.83142068  0.64763772  0.95068601    -0.11400
C267        C  0.78919086  0.61861902  0.98150307     0.02700
C268        C  0.79347238  0.61454326  0.04276585     0.00300
C269        C  0.82196475  0.66087823  0.06784443    -0.11400
C270        C  0.85848375  0.69504212  0.03597576     0.02600
H271        H  0.83605954  0.64094040  0.90516183     0.15500
H272        H  0.81923197  0.66881680  0.11307081     0.15500
C273        C  0.88602693  0.74215408  0.06260771     0.37200
C274        C  0.74455147  0.59448512  0.94749206     0.37100
N275        N  0.90669404  0.78119194  0.08316272    -0.43200
N276        N  0.71056751  0.57649063  0.91698665    -0.43200
C277        C  0.07459687  0.46453417  0.21577928     0.00400
C278        C  0.05226670  0.45772553  0.16079979    -0.11400
C279        C  0.07423021  0.48903712  0.11623385     0.02700
C280        C  0.09915488  0.54156154  0.12679125     0.00300
C281        C  0.11008438  0.55712729  0.18289627    -0.11400
C282        C  0.10048173  0.51839042  0.22758618     0.02600
H283        H  0.02587766  0.42194264  0.15049627     0.15500
H284        H  0.12691331  0.59867624  0.19159425     0.15500
C285        C  0.12078847  0.53547093  0.28291484     0.37200
C286        C  0.07833153  0.46315265  0.06082689     0.37100
N287        N  0.13889087  0.55059409  0.32611833    -0.43200
N288        N  0.08530134  0.44118141  0.01753645    -0.43200
C289        C  0.09088141  0.72570128  0.63079889     0.00400
C290        C  0.11685096  0.75175144  0.67832719    -0.11400
C291        C  0.12583814  0.72240268  0.72879646     0.02700
C292        C  0.10484180  0.66741405  0.73397160     0.00300
C293        C  0.09105243  0.63750322  0.68503376    -0.11400
C294        C  0.08859491  0.66546675  0.63232676     0.02600
H295        H  0.12633600  0.79629539  0.67767163     0.15500
H296        H  0.08081307  0.59311444  0.68815346     0.15500
C297        C  0.08736333  0.63040839  0.58235304     0.37200
C298        C  0.15237789  0.75061506  0.77633873     0.37100
N299        N  0.08704014  0.60128350  0.54302322    -0.43200
N300        N  0.17408374  0.77231225  0.81463589    -0.43200
C301        C  0.13393517  0.79493592  0.56558397     0.00400
C302        C  0.18087908  0.75887422  0.55933837    -0.11400
C303        C  0.23632681  0.77417420  0.57641536     0.02700
C304        C  0.24999574  0.83000688  0.59259282     0.00300
C305        C  0.20505418  0.86821685  0.59305474    -0.11400
C306        C  0.14861117  0.85224637  0.57964591     0.02600
H307        H  0.17274893  0.71534449  0.54851421     0.15500
H308        H  0.21430548  0.91150235  0.60412327     0.15500
C309        C  0.10882231  0.89761725  0.58174832     0.37200
C310        C  0.27625028  0.72923485  0.57912303     0.37100
N311        N  0.07933281  0.93616333  0.58372785    -0.43200
N312        N  0.30309681  0.68892279  0.58105572    -0.43200
C313        C  0.40217541  0.46066261  0.63331931     0.00400
C314        C  0.35586480  0.47729892  0.66513074    -0.11400
C315        C  0.36146387  0.51626617  0.70935456     0.02700
C316        C  0.41676423  0.53794822  0.72552760     0.00300
C317        C  0.46260533  0.51871652  0.69212864    -0.11400
C318        C  0.45578864  0.48188657  0.64691979     0.02600
H319        H  0.31413078  0.46288665  0.65212487     0.15500
H320        H  0.50368151  0.53741847  0.69524538     0.15500
C321        C  0.50330343  0.47361352  0.60933615     0.37200
C322        C  0.30723949  0.53490887  0.73015460     0.37100
N323        N  0.54027514  0.46718335  0.57790720    -0.43200
N324        N  0.26218561  0.54734883  0.74468348    -0.43200
C325        C  0.43919427  0.64450650  0.73659921     0.00400
C326        C  0.43319887  0.64836179  0.67617591    -0.11400
C327        C  0.42533004  0.69970092  0.64646743     0.02700
C328        C  0.42008726  0.75106117  0.67613406     0.00300
C329        C  0.43510909  0.74901733  0.73462301    -0.11400
C330        C  0.44560870  0.69737140  0.76437380     0.02600
H331        H  0.43127744  0.61111862  0.65040520     0.15500
H332        H  0.43665258  0.78809444  0.75802910     0.15500
C333        C  0.45768805  0.69986597  0.82465432     0.37200
C334        C  0.42160379  0.69588721  0.58537432     0.37100
N335        N  0.46728381  0.70227703  0.87302781    -0.43200
N336        N  0.41873142  0.68793428  0.53678678    -0.43200
C337        C  0.37591218  0.59004197  0.81029390     0.00400
C338        C  0.35899712  0.54249388  0.84348390    -0.11400
C339        C  0.31220061  0.54371204  0.88052473     0.02700
C340        C  0.28032287  0.59317302  0.88554817     0.00300
C341        C  0.29374711  0.63882811  0.85015311    -0.11400
C342        C  0.33594437  0.63481504  0.80848641     0.02600
H343        H  0.38180737  0.50337076  0.83930858     0.15500
H344        H  0.26460579  0.67393914  0.84819259     0.15500
C345        C  0.32203551  0.66314974  0.75560197     0.37200
C346        C  0.29718706  0.49341345  0.91194691     0.37100
N347        N  0.30769454  0.68468398  0.71362822    -0.43200
N348        N  0.28506014  0.45298385  0.93691771    -0.43200
C349        C  0.42172815  0.88239985  0.97788407     0.00400
C350        C  0.37492694  0.84781362  0.98683791    -0.11400
C351        C  0.32203059  0.86275911  0.96463311     0.02700
C352        C  0.31384918  0.91813776  0.94138219     0.00300
C353        C  0.36339689  0.94814390  0.92609871    -0.11400
C354        C  0.41662354  0.93011886  0.94303070     0.02600
H355        H  0.38006706  0.80859397  0.01008917     0.15500
H356        H  0.36030442  0.98786580  0.90354122     0.15500
C357        C  0.46531194  0.96280232  0.92629777     0.37200
C358        C  0.28145965  0.81746659  0.96082668     0.37100
N359        N  0.50458597  0.98779860  0.91123389    -0.43200
N360        N  0.25072763  0.77964566  0.95712059    -0.43200
C361        C  0.26302922  0.94145334  0.85537287     0.00400
C362        C  0.26389213  0.88582262  0.83514150    -0.11400
C363        C  0.29699089  0.86948209  0.78896931     0.02700
C364        C  0.31870829  0.90910839  0.74947197     0.00300
C365        C  0.30762900  0.96639436  0.76255039    -0.11400
C366        C  0.28392191  0.98278812  0.81621985     0.02600
H367        H  0.24761984  0.85267286  0.86230096     0.15500
H368        H  0.32101252  0.99883188  0.73280151     0.15500
C369        C  0.28427157  0.04158654  0.83020447     0.37200
C370        C  0.31836753  0.81363630  0.79445360     0.37100
N371        N  0.28498639  0.08896764  0.84091722    -0.43200
N372        N  0.33492604  0.76954877  0.80591546    -0.43200
C373        C  0.20301817  0.91317311  0.94317502     0.00400
C374        C  0.15719206  0.90690026  0.90485743    -0.11400
C375        C  0.11425497  0.86787643  0.91537440     0.02700
C376        C  0.11675904  0.83458313  0.96534800     0.00300
C377        C  0.15156546  0.85260563  0.00995526    -0.11400
C378        C  0.19369377  0.89304100  0.00008487     0.02600
H379        H  0.15666958  0.92949753  0.86455024     0.15500
H380        H  0.15042905  0.83035663  0.05055124     0.15500
C381        C  0.23015464  0.90544099  0.04778063     0.37200
C382        C  0.07203176  0.85950909  0.87157735     0.37100
N383        N  0.25800294  0.91323357  0.08762333    -0.43200
N384        N  0.03830807  0.85328626  0.83631634    -0.43200
C385        C  0.69239580  0.43042578  0.98079458     0.00400
C386        C  0.74518281  0.45441888  0.96708932    -0.11400
C387        C  0.77389965  0.49071139  0.00468765     0.02700
C388        C  0.74608317  0.51316962  0.05343980     0.00300
C389        C  0.69820910  0.48212464  0.07181785    -0.11400
C390        C  0.67127771  0.44196267  0.03625558     0.02600
H391        H  0.76514083  0.44348852  0.92697135     0.15500
H392        H  0.67793327  0.49328968  0.11157920     0.15500
C393        C  0.62085611  0.41588309  0.05803191     0.37200
C394        C  0.83090688  0.50489547  0.98925076     0.37100
N395        N  0.58057705  0.39711312  0.07869762    -0.43200
N396        N  0.87559362  0.51622676  0.97291662    -0.43200
C397        C  0.53343385  0.32132194  0.93441994     0.00400
C398        C  0.55410131  0.30491392  0.98712581    -0.11400
C399        C  0.51871910  0.28704988  0.03090390     0.02700
C400        C  0.45866232  0.28215145  0.02261498     0.00300
C401        C  0.43766396  0.29862536  0.96826292    -0.11400
C402        C  0.47451859  0.31919412  0.92483770     0.02600
H403        H  0.59932979  0.30800373  0.99498034     0.15500
H404        H  0.39263422  0.29712766  0.95999025     0.15500
C405        C  0.45120568  0.34000197  0.87196657     0.37200
C406        C  0.54819869  0.27599898  0.08364484     0.37100
N407        N  0.43273204  0.35726845  0.82962659    -0.43200
N408        N  0.57722760  0.26934989  0.12286905    -0.43200
C409        C  0.48526531  0.56793972  0.80653571     0.00400
C410        C  0.54082963  0.57036785  0.78338619    -0.11400
C411        C  0.58500035  0.53339118  0.80178893     0.02700
C412        C  0.57374827  0.48888640  0.84165931     0.00300
C413        C  0.52221072  0.49529612  0.87187959    -0.11400
C414        C  0.48365049  0.53889542  0.85978613     0.02600
H415        H  0.54961376  0.60030354  0.74938105     0.15500
H416        H  0.51188374  0.46862146  0.90778967     0.15500
C417        C  0.45577620  0.56297065  0.90874527     0.37200
C418        C  0.64166427  0.54833314  0.78495636     0.37100
N419        N  0.43415009  0.58222894  0.94835478    -0.43200
N420        N  0.68648834  0.56350594  0.77195661    -0.43200
C421        C  0.95610686  0.97368126  0.30215967     0.00400
C422        C  0.99543695  0.97082241  0.34728826    -0.11400
C423        C  0.99784404  0.00939562  0.39147965     0.02700
C424        C  0.95541549  0.05069264  0.39654138     0.00300
C425        C  0.91748135  0.05711607  0.35149542    -0.11400
C426        C  0.91891007  0.02187623  0.30354894     0.02600
H427        H  0.02187755  0.93477764  0.35196526     0.15500
H428        H  0.88608486  0.09015455  0.35387180     0.15500
C429        C  0.88068773  0.03942879  0.25897823     0.37200
C430        C  0.04257230  0.00159576  0.43291535     0.37100
N431        N  0.84874280  0.05634030  0.22563072    -0.43200
N432        N  0.07888232  0.99512974  0.46539570    -0.43200
C433        C  0.21059208  0.08253491  0.46936582     0.00400
C434        C  0.20028792  0.05142028  0.52013912    -0.11400
C435        C  0.16245834  0.06948705  0.56173146     0.02700
C436        C  0.12868201  0.11700290  0.55177436     0.00300
C437        C  0.14105460  0.15124277  0.50454920    -0.11400
C438        C  0.18300510  0.13612394  0.46514984     0.02600
H439        H  0.22462138  0.01489909  0.53115410     0.15500
H440        H  0.11671361  0.18912430  0.49726135     0.15500
C441        C  0.19536198  0.17635002  0.42012594     0.37200
C442        C  0.16088579  0.03952721  0.61564413     0.37100
N443        N  0.20501885  0.20885318  0.38437926    -0.43200
N444        N  0.16019975  0.01605459  0.65908452    -0.43200
C445        C  0.02727172  0.80809499  0.59433151     0.00400
C446        C  0.00487181  0.83852440  0.54716949    -0.11400
C447        C  0.96345031  0.87895826  0.55385021     0.02700
C448        C  0.94951662  0.89723994  0.60879146     0.00300
C449        C  0.96499402  0.86456579  0.65558328    -0.11400
C450        C  0.00016489  0.81776407  0.64859912     0.02600
H451        H  0.02093137  0.83204628  0.50444866     0.15500
H452        H  0.95120325  0.87674371  0.69791398     0.15500
C453        C  0.00191999  0.78101311  0.69759081     0.37200
C454        C  0.94042707  0.90691769  0.50415057     0.37100
N455        N  0.99970525  0.75277945  0.73795582    -0.43200
N456        N  0.92010940  0.93097107  0.46640664    -0.43200
C457        C  0.50765398  0.06157901  0.72439300     0.00400
C458        C  0.47345543  0.03106952  0.76389163    -0.11400
C459        C  0.44044833  0.98363968  0.74629917     0.02700
C460        C  0.42395869  0.97625709  0.68828346     0.00300
C461        C  0.44600330  0.01695656  0.65002927    -0.11400
C462        C  0.48840793  0.05674865  0.66614204     0.02600
H463        H  0.48305279  0.03526090  0.80885217     0.15500
H464        H  0.43292320  0.01572421  0.60573964     0.15500
C465        C  0.51163079  0.09006704  0.61998889     0.37200
C466        C  0.43571304  0.93731404  0.78600131     0.37100
N467        N  0.52977283  0.11565777  0.58188904    -0.43200
N468        N  0.43339070  0.89857934  0.81604455    -0.43200
C469        C  0.64528613  0.97404954  0.87491223     0.00400
C470        C  0.67296480  0.02387807  0.85891087    -0.11400
C471        C  0.65502383  0.05448102  0.81058997     0.02700
C472        C  0.60124528  0.04269889  0.78497559     0.00300
C473        C  0.58272974  0.98649329  0.79390258    -0.11400
C474        C  0.60503423  0.95197745  0.83673694     0.02600
H475        H  0.70879316  0.03858203  0.88369600     0.15500
H476        H  0.55166573  0.96732566  0.76695188     0.15500
C477        C  0.58324816  0.89527455  0.84181961     0.37200
C478        C  0.69478211  0.09372456  0.78615056     0.37100
N479        N  0.56610137  0.84974054  0.84524179    -0.43200
N480        N  0.72940104  0.12130242  0.76495492    -0.43200
C481        C  0.60986096  0.08847119  0.69122475     0.00400
C482        C  0.63498810  0.13898139  0.67078954    -0.11400
C483        C  0.68018707  0.13845477  0.63203060     0.02700
C484        C  0.70722475  0.08776877  0.61956952     0.00300
C485        C  0.67961620  0.03771546  0.63322505    -0.11400
C486        C  0.62886186  0.03791321  0.66402712     0.02600
H487        H  0.62193735  0.17949267  0.68506589     0.15500
H488        H  0.69825851  0.99820608  0.62038031     0.15500
C489        C  0.59867273  0.98511139  0.66617640     0.37200
C490        C  0.69816901  0.19022403  0.60543236     0.37100
N491        N  0.57533150  0.94224993  0.66517566    -0.43200
N492        N  0.71118593  0.23128152  0.58217066    -0.43200
C493        C  0.58848273  0.25792234  0.83188798     0.00400
C494        C  0.56099367  0.25288099  0.77842655    -0.11400
C495        C  0.54679482  0.19963799  0.75310799     0.02700
C496        C  0.56449473  0.14709549  0.77777856     0.00300
C497        C  0.58303123  0.15354973  0.83562323    -0.11400
C498        C  0.59610715  0.20636079  0.86148118     0.02600
H499        H  0.55010603  0.29112474  0.75586806     0.15500
H500        H  0.58882414  0.11688393  0.86194714     0.15500
C501        C  0.61992029  0.20562184  0.91817679     0.37200
C502        C  0.51448583  0.20176613  0.70104897     0.37100
N503        N  0.63945478  0.20400490  0.96346669    -0.43200
N504        N  0.48785554  0.20668327  0.65989076    -0.43200
C505        C  0.70407692  0.42654925  0.54993615     0.00400
C506        C  0.69847759  0.37037052  0.53047162    -0.11400
C507        C  0.65485625  0.35478563  0.49315141     0.02700
C508        C  0.61904508  0.39601133  0.47069947     0.00300
C509        C  0.62740168  0.45209922  0.48485414    -0.11400
C510        C  0.66576196  0.46688149  0.52684762     0.02600
H511        H  0.72741666  0.33800174  0.54330381     0.15500
H512        H  0.59785150  0.48360189  0.46940896     0.15500
C513        C  0.65876194  0.52175094  0.55145076     0.37200
C514        C  0.64743868  0.29658815  0.47792235     0.37100
N515        N  0.65061138  0.56418938  0.57344180    -0.43200
N516        N  0.64126277  0.25003460  0.46535629    -0.43200
C517        C  0.72169890  0.45795447  0.65265137     0.00400
C518        C  0.66306822  0.44340900  0.66114349    -0.11400
C519        C  0.63918967  0.42944481  0.71460145     0.02700
C520        C  0.67246307  0.42901885  0.76393485     0.00300
C521        C  0.72945606  0.44645058  0.75822904    -0.11400
C522        C  0.75321240  0.46293920  0.70454691     0.02600
H523        H  0.63476606  0.43741201  0.62590134     0.15500
H524        H  0.75570845  0.44745790  0.79618808     0.15500
C525        C  0.81145495  0.48114476  0.70420400     0.37200
C526        C  0.58067799  0.41171257  0.71737024     0.37100
N527        N  0.85817643  0.49588293  0.70545536    -0.43200
N528        N  0.53389235  0.39740270  0.72037339    -0.43200
C529        C  0.79659604  0.40027579  0.60385132     0.00400
C530        C  0.77924107  0.35103309  0.63331925    -0.11400
C531        C  0.81297090  0.30326109  0.63322873     0.02700
C532        C  0.86159814  0.30256032  0.59896221     0.00300
C533        C  0.88530446  0.35310305  0.58086185    -0.11400
C534        C  0.85541377  0.40295090  0.58820951     0.02600
H535        H  0.73812829  0.34863460  0.65370425     0.15500
H536        H  0.92738308  0.35371328  0.56230667     0.15500
C537        C  0.88796560  0.45427213  0.58229754     0.37200
C538        C  0.79885834  0.25640134  0.67014633     0.37100
N539        N  0.91490286  0.49483252  0.57777994    -0.43200
N540        N  0.78889622  0.21902840  0.70041253    -0.43200
C541        C  0.94504442  0.32578279  0.94358976     0.00400
C542        C  0.97118777  0.34480158  0.89208933    -0.11400
C543        C  0.98819916  0.40040679  0.88314896     0.02700
C544        C  0.98311353  0.43922278  0.92734643     0.00300
C545        C  0.96278601  0.42053576  0.98033981    -0.11400
C546        C  0.94897642  0.36410457  0.98998240     0.02600
H547        H  0.98148133  0.31644160  0.85818118     0.15500
H548        H  0.96462342  0.44873453  0.01653239     0.15500
C549        C  0.95695424  0.34547849  0.04806398     0.37200
C550        C  0.01071352  0.41637337  0.82795972     0.37100
N551        N  0.96713247  0.33121373  0.09423796    -0.43200
N552        N  0.02848474  0.42919346  0.78367227    -0.43200
C553        C  0.85228232  0.26796935  0.96078677     0.00400
C554        C  0.81396595  0.24146245  0.92236043    -0.11400
C555        C  0.76541196  0.26930899  0.90125249     0.02700
C556        C  0.74582871  0.31963404  0.92663137     0.00300
C557        C  0.77212989  0.33058751  0.98020680    -0.11400
C558        C  0.82465840  0.30678906  0.99674197     0.02600
H559        H  0.82544868  0.20234279  0.90219604     0.15500
H560        H  0.75074237  0.35431473  0.01234097     0.15500
C561        C  0.83831020  0.31007357  0.05646768     0.37200
C562        C  0.73814750  0.24414789  0.85308684     0.37100
N563        N  0.84554203  0.31178166  0.10530006    -0.43200
N564        N  0.71719876  0.22442231  0.81340506    -0.43200
C565        C  0.92666806  0.22892600  0.89459066     0.00400
C566        C  0.94414581  0.17165055  0.89786006    -0.11400
C567        C  0.95056742  0.13884621  0.84918721     0.02700
C568        C  0.93887637  0.16250361  0.79595590     0.00300
C569        C  0.91623002  0.21622090  0.79172781    -0.11400
C570        C  0.90726006  0.24840511  0.83984818     0.02600
H571        H  0.95193658  0.15110935  0.93839978     0.15500
H572        H  0.90374780  0.23257562  0.75018696     0.15500
C573        C  0.87681740  0.30052672  0.83068329     0.37200
C574        C  0.96884415  0.08128285  0.85473285     0.37100
N575        N  0.85273136  0.34208031  0.82272293    -0.43200
N576        N  0.98337851  0.03511532  0.85919404    -0.43200
C577        C  0.84480224  0.58332369  0.25283356     0.00400
C578        C  0.87847147  0.58452514  0.20345543    -0.11400
C579        C  0.85632399  0.56984495  0.14905530     0.02700
C580        C  0.79726305  0.55794105  0.14106437     0.00300
C581        C  0.76771743  0.54527683  0.19262080    -0.11400
C582        C  0.78986865  0.55980866  0.24714259     0.02600
H583        H  0.92242034  0.59734476  0.20725863     0.15500
H584        H  0.72396616  0.53183912  0.19025084     0.15500
C585        C  0.75429469  0.55229723  0.29671740     0.37200
C586        C  0.89656591  0.56601807  0.10326181     0.37100
N587        N  0.72580876  0.54621092  0.33650979    -0.43200
N588        N  0.93100392  0.56313217  0.06841210    -0.43200
C589        C  0.65665272  0.73803936  0.45056945     0.00400
C590        C  0.69914741  0.76682488  0.41862391    -0.11400
C591        C  0.74725365  0.73919980  0.39598033     0.02700
C592        C  0.75873802  0.68177291  0.40882172     0.00300
C593        C  0.71909092  0.65560401  0.44587394    -0.11400
C594        C  0.67511028  0.68582408  0.47276570     0.02600
H595        H  0.69146789  0.80968665  0.40489890     0.15500
H596        H  0.72435196  0.61248912  0.45872033     0.15500
C597        C  0.67669873  0.68096615  0.53394085     0.37200
C598        C  0.77854341  0.76971842  0.35331079     0.37100
N599        N  0.68138382  0.67912749  0.58314013    -0.43200
N600        N  0.80088928  0.79398590  0.31676734    -0.43200
C601        C  0.92342867  0.75248686  0.33049511     0.00400
C602        C  0.94222323  0.75937774  0.27378167    -0.11400
C603        C  0.95917201  0.81261939  0.25114956     0.02700
C604        C  0.95561232  0.86285629  0.28409516     0.00300
C605        C  0.93983306  0.85378992  0.34228371    -0.11400
C606        C  0.92350461  0.80074961  0.36487115     0.02600
H607        H  0.94454860  0.72251628  0.24695274     0.15500
H608        H  0.93416431  0.88884150  0.37002798     0.15500
C609        C  0.90099747  0.79783011  0.42214389     0.37200
C610        C  0.98311365  0.81298923  0.19466608     0.37100
N611        N  0.88202137  0.79467070  0.46761852    -0.43200
N612        N  0.00430637  0.81134180  0.15017140    -0.43200
C613        C  0.97489989  0.68874442  0.43766857     0.00400
C614        C  0.95937962  0.68239377  0.49478514    -0.11400
C615        C  0.99239399  0.70230532  0.53964661     0.02700
C616        C  0.04554487  0.73006559  0.52958898     0.00300
C617        C  0.06298774  0.73415949  0.47163113    -0.11400
C618        C  0.02824985  0.71414635  0.42612903     0.02600
H619        H  0.91960999  0.66214260  0.50496820     0.15500
H620        H  0.10243110  0.75526038  0.46136543     0.15500
C621        C  0.04935554  0.71810838  0.36851972     0.37200
C622        C  0.96870016  0.69279271  0.59580548     0.37100
N623        N  0.06674711  0.72103794  0.32239439    -0.43200
N624        N  0.94801991  0.68254777  0.63947112    -0.43200
C625        C  0.01622311  0.43594291  0.29559355     0.00400
C626        C  0.02790886  0.47174524  0.34200905    -0.11400
C627        C  0.99318040  0.51659882  0.35764300     0.02700
C628        C  0.93883341  0.52438765  0.33289265     0.00300
C629        C  0.92200888  0.48251874  0.29350452    -0.11400
C630        C  0.95993079  0.44016132  0.27403355     0.02600
H631        H  0.06884200  0.47118343  0.36208196     0.15500
H632        H  0.87947249  0.48292719  0.27662998     0.15500
C633        C  0.93898495  0.40075078  0.23283025     0.37200
C634        C  0.02037384  0.55669589  0.39449035     0.37100
N635        N  0.92061594  0.36857999  0.20098601    -0.43200
N636        N  0.04567887  0.58638526  0.42394323    -0.35600
C637        C  0.82208286  0.57908299  0.47372199     0.00400
C638        C  0.81728138  0.52307134  0.45836020    -0.11400
C639        C  0.79871045  0.48171352  0.49636740     0.02700
C640        C  0.78046348  0.49492386  0.55369189     0.00300
C641        C  0.78660601  0.55192361  0.56993901    -0.11400
C642        C  0.80830547  0.59343400  0.53096710     0.02600
H643        H  0.82904241  0.51096302  0.41536545     0.15500
H644        H  0.77414345  0.56419860  0.61253784     0.15500
C645        C  0.81500631  0.65047144  0.55002204     0.37200
C646        C  0.80084831  0.42524874  0.47382530     0.37100
N647        N  0.82043953  0.69642197  0.56494687    -0.43200
N648        N  0.80381330  0.38066328  0.45467231    -0.43200
C649        C  0.08862503  0.24497196  0.17784978     0.00400
C650        C  0.05784673  0.25033966  0.22925337    -0.11400
C651        C  0.04501258  0.30374395  0.25334057     0.02700
C652        C  0.06543084  0.35458377  0.22779185     0.00300
C653        C  0.09695964  0.34664725  0.17647605    -0.11400
C654        C  0.10346358  0.29484996  0.14936049     0.02600
H655        H  0.04388646  0.21261665  0.25105424     0.15500
H656        H  0.11866867  0.38104415  0.15610246     0.15500
C657        C  0.12869689  0.29503057  0.09314956     0.37200
C658        C  0.01175360  0.30424022  0.30487020     0.37100
N659        N  0.14909870  0.29715460  0.04824208    -0.43200
N660        N  0.98480313  0.30399291  0.34614515    -0.43200
C661        C  0.22617666  0.05850844  0.36208831     0.00400
C662        C  0.16789487  0.07168308  0.35402232    -0.11400
C663        C  0.14509108  0.08676206  0.30025512     0.02700
C664        C  0.17865611  0.08504308  0.25050637     0.00300
C665        C  0.23306871  0.06169525  0.25620196    -0.11400
C666        C  0.25538320  0.04547667  0.31031748     0.02600
H667        H  0.13925284  0.07243027  0.38989211     0.15500
H668        H  0.25802982  0.05522072  0.21797286     0.15500
C669        C  0.30966415  0.01814835  0.31072554     0.37200
C670        C  0.08606391  0.10157776  0.29697226     0.37100
N671        N  0.35286097  0.99555732  0.30910693    -0.43200
N672        N  0.03844729  0.11234541  0.29450014    -0.43200
C673        C  0.35486996  0.24421957  0.05390084     0.00400
C674        C  0.31049375  0.27319221  0.08174900    -0.11400
C675        C  0.26444646  0.24338935  0.10597683     0.02700
C676        C  0.24831392  0.18963348  0.08469766     0.00300
C677        C  0.28084381  0.17343124  0.03612449    -0.11400
C678        C  0.33449209  0.19737998  0.02281213     0.02600
H679        H  0.31728127  0.31614755  0.09535822     0.15500
H680        H  0.26511687  0.14423185  0.00552715     0.15500
C681        C  0.36001848  0.18071890  0.96969926     0.37200
C682        C  0.23838010  0.27016517  0.15405296     0.37100
N683        N  0.37882713  0.16711970  0.92631499    -0.43200
N684        N  0.22050343  0.29336670  0.19332786    -0.43200
C685        C  0.09637136  0.01040086  0.17237668     0.00400
C686        C  0.10753442  0.98225237  0.22460979    -0.11400
C687        C  0.06922492  0.94207657  0.24720942     0.02700
C688        C  0.01571024  0.93448656  0.22097551     0.00300
C689        C  0.01914899  0.94194431  0.16119777    -0.11400
C690        C  0.05820345  0.98026290  0.13663308     0.02600
H691        H  0.14753605  0.98708445  0.24579057     0.15500
H692        H  0.99053047  0.91956497  0.13330239     0.15500
C693        C  0.06333221  0.97975915  0.07529583     0.37200
C694        C  0.09102699  0.90074809  0.28673447     0.37100
N695        N  0.06731036  0.97807419  0.02606782    -0.43200
N696        N  0.10877283  0.86755666  0.31823209    -0.43200
C697        C  0.03320957  0.18302449  0.07912940     0.00400
C698        C  0.05348948  0.20524863  0.02811274    -0.11400
C699        C  0.01822930  0.23144392  0.98844062     0.02700
C700        C  0.95819515  0.23540995  0.99761304     0.00300
C701        C  0.93726421  0.21065050  0.04875826    -0.11400
C702        C  0.97441525  0.18603899  0.08978754     0.02600
H703        H  0.09831532  0.20190123  0.01885063     0.15500
H704        H  0.89227675  0.21046296  0.05705924     0.15500
C705        C  0.95179129  0.16461365  0.14273528     0.37200
C706        C  0.04641411  0.25004963  0.93681832     0.37100
N707        N  0.93430142  0.14787206  0.18576501    -0.43200
N708        N  0.07113811  0.26310956  0.89611803    -0.43200
C709        C  0.24768265  0.00486503  0.95213050     0.00400
C710        C  0.19844208  0.03497560  0.93620377    -0.11400
C711        C  0.17031127  0.07166481  0.97397903     0.02700
C712        C  0.19065094  0.07974050  0.03014137     0.00300
C713        C  0.24012557  0.05169230  0.04580576    -0.11400
C714        C  0.27100806  0.01940735  0.00694078     0.02600
H715        H  0.17896396  0.02616313  0.89533206     0.15500
H716        H  0.25704090  0.05838936  0.08836248     0.15500
C717        C  0.32618149  0.00347994  0.02764274     0.37200
C718        C  0.11929757  0.09805601  0.95412733     0.37100
N719        N  0.36997095  0.99303918  0.04705631    -0.43200
N720        N  0.07823551  0.11776620  0.93638978    -0.43200
loop_ 
_geom_bond_atom_site_label_1 
_geom_bond_atom_site_label_2 
_geom_bond_distance 
_geom_bond_site_symmetry_2 
_ccdc_geom_bond_type 
C1            H2   1.103       .  S
C1            C7   1.585       .  S
C1            C6   1.559       .  S
C1            C5   1.571       .  S
C3            H4   1.096       .  S
C3            C9   1.558       .  S
C3            C8   1.566       .  S
C3           C10   1.551       .  S
C5            C8   1.398       .  D
C5          C664   1.525       .  S
C6            C9   1.372       .  D
C6          C649   1.522       .  S
C7           C10   1.396       .  D
C7          C676   1.569       .  S
C8          C685   1.551       .  S
C9          C697   1.509       .  S
C10         C712   1.513       .  S
C11          H12   1.106       .  S
C11          C17   1.586       .  S
C11          C16   1.577       .  S
C11          C15   1.577       .  S
C13          H14   1.107       .  S
C13          C19   1.555       .  S
C13          C18   1.561       .  S
C13          C20   1.550       .  S
C15          C18   1.391       .  D
C15         C577   1.532       .  S
C16          C19   1.385       .  D
C16         C601   1.530       .  S
C17          C20   1.392       .  D
C17         C592   1.556       .  S
C18         C628   1.547       .  S
C19         C613   1.521       .  S
C20         C637   1.518       .  S
C21         C541   1.587       .  S
C21         C553   1.613       .  S
C21         C565   1.574       .  S
C21         C700   1.583       .  S
C22         C505   1.567       .  S
C22         C517   1.616       .  S
C22         C529   1.566       .  S
C22         C640   1.594       .  S
C23         C457   1.628       .  S
C23         C472   1.605       .  S
C23         C481   1.576       .  S
C23         C496   1.652       .  S
Zn24         O28   1.827       .  S
Zn24         O29   1.964   1_655  S
Zn24         O33   1.950       .  S
Zn24         O40   1.886   1_545  S
Zn25         O28   1.915       .  S
Zn25         O30   1.948       .  S
Zn25         O32   2.055   1_655  S
Zn25         O36   1.973       .  S
Zn26         O28   1.909       .  S
Zn26         O31   2.073       .  S
Zn26         O34   2.027       .  S
Zn26         O37   2.045       .  S
Zn27         O28   1.922       .  S
Zn27         O35   2.006       .  S
Zn27         O38   1.989       .  S
Zn27         O39   2.050   1_545  S
O29          C41   1.260       .  A
O30          C42   1.265       .  A
O31          C43   1.284       .  A
O32          C41   1.269       .  A
O33          C43   1.266       .  A
O34          C42   1.279       .  A
O35          C44   1.275       .  A
O36          C45   1.274       .  A
O37          C44   1.277       .  A
O38          C45   1.275       .  A
O39          C46   1.272       .  A
O40          C46   1.261       .  A
C41         C436   1.482       .  S
C42         C532   1.453       .  S
C43         C424   1.488       .  S
C44         C484   1.475       .  S
C45         C568   1.445       .  S
C46         C448   1.465       .  S
C47          H48   1.101       .  S
C47          C53   1.588       .  S
C47          C52   1.590       .  S
C47          C51   1.570       .  S
C49          H50   1.105       .  S
C49          C55   1.560       .  S
C49          C54   1.570       .  S
C49          C56   1.555       .  S
C51          C54   1.384       .  D
C51         C493   1.567       .  S
C52          C55   1.388       .  D
C52         C556   1.567       .  S
C53          C56   1.400       .  D
C53         C520   1.520       .  S
C54         C397   1.488       .  S
C55         C385   1.533       .  S
C56         C412   1.566       .  S
C57         C352   1.561       .  S
C57         C361   1.595       .  S
C57         C373   1.561       .  S
C57         C709   1.581   1_565  S
C58         C316   1.587       .  S
C58         C325   1.609       .  S
C58         C337   1.580       .  S
C58         C409   1.624       .  S
C59         C289   1.562       .  S
C59         C301   1.604       .  S
C59         C445   1.573       .  S
C59         C616   1.585       .  S
Zn60         O64   1.904       .  S
Zn60         O65   2.073   1_455  S
Zn60         O69   1.956       .  S
Zn60         O76   1.986       .  S
Zn61         O64   1.825       .  S
Zn61         O66   1.984   1_455  S
Zn61         O68   1.961   1_456  S
Zn61         O72   1.873   1_556  S
Zn62         O64   1.922       .  S
Zn62         O67   2.005       .  S
Zn62         O70   2.012       .  S
Zn62         O73   2.022       .  S
Zn63         O64   1.918       .  S
Zn63         O71   2.030       .  S
Zn63         O74   2.065   1_556  S
Zn63         O75   2.021       .  S
O65          C77   1.273       .  A
O66          C78   1.272   1_655  A
O67          C79   1.271       .  A
O68          C77   1.261   1_554  A
O69          C79   1.272       .  A
O70          C78   1.276       .  A
O71          C80   1.278       .  A
O72          C81   1.257       .  A
O73          C80   1.275       .  A
O74          C81   1.276       .  A
O75          C82   1.281       .  A
O76          C82   1.273       .  A
C77         C265   1.474       .  S
C78         C544   1.476   1_455  S
C79         C292   1.455       .  S
C80         C340   1.480       .  S
C81         C280   1.459       .  S
C82         C376   1.477       .  S
C83         C244   1.589       .  S
C83         C253   1.567       .  S
C83         C400   1.572       .  S
C83         C673   1.615       .  S
C84         C217   1.585       .  S
C84         C229   1.555       .  S
C84         C433   1.580       .  S
C84         C661   1.615       .  S
C85         C205   1.561       .  S
C85         C277   1.566       .  S
C85         C625   1.593       .  S
C85         C652   1.605       .  S
Zn86         O90   1.898       .  S
Zn86         O91   1.981       .  S
Zn86         O95   2.003       .  S
Zn86        O102   1.990       .  S
Zn87         O90   1.909       .  S
Zn87         O92   2.001       .  S
Zn87         O94   1.983       .  S
Zn87         O98   1.967       .  S
Zn88         O90   1.831       .  S
Zn88         O93   1.939       .  S
Zn88         O96   1.974       .  S
Zn88         O99   1.971       .  S
Zn89         O90   1.899       .  S
Zn89         O97   2.036       .  S
Zn89        O100   1.996       .  S
Zn89        O101   1.996       .  S
O91         C103   1.271       .  A
O92         C104   1.270       .  A
O93         C105   1.266       .  A
O94         C103   1.271       .  A
O95         C105   1.273       .  A
O96         C104   1.266       .  A
O97         C106   1.276       .  A
O98         C107   1.269       .  A
O99         C106   1.263       .  A
O100        C107   1.274       .  A
O101        C108   1.274       .  A
O102        C108   1.274       .  A
C103        C508   1.453       .  S
C104        C256   1.460       .  S
C105        C232   1.463       .  S
C106        C208   1.461       .  S
C107        C196   1.452       .  S
C108        C313   1.464       .  S
C109        H110   1.104       .  S
C109        C115   1.568       .  S
C109        C114   1.582       .  S
C109        C113   1.582       .  S
C111        H112   1.096       .  S
C111        C117   1.551       .  S
C111        C116   1.574       .  S
C111        C118   1.593       .  S
C113        C116   1.397       .  D
C113        C364   1.545       .  S
C114        C117   1.380       .  D
C114        C328   1.546       .  S
C115        C118   1.398       .  D
C115        C304   1.532       .  S
C116        C460   1.566       .  S
C117        C184   1.519       .  S
C118        C220   1.563       .  S
C119        C169   1.577       .  S
C119        C421   1.593       .  S
C119        C604   1.615       .  S
C119        C688   1.604   1_655  S
C120        C157   1.583       .  S
C120        C181   1.588       .  S
C120        C193   1.586       .  S
C120        C589   1.610       .  S
C121        C148   1.575       .  S
C121        C268   1.586       .  S
C121        C388   1.589       .  S
C121        C580   1.619       .  S
Zn122       O126   1.909       .  S
Zn122       O127   2.015   1_554  S
Zn122       O131   1.995   1_554  S
Zn122       O138   2.026       .  S
Zn123       O126   1.902       .  S
Zn123       O128   2.019   1_565  S
Zn123       O130   2.031   1_554  S
Zn123       O134   2.065       .  S
Zn124       O126   1.919       .  S
Zn124       O129   1.996       .  S
Zn124       O132   1.991   1_565  S
Zn124       O135   2.053       .  S
Zn125       O126   1.827       .  S
Zn125       O133   1.969       .  S
Zn125       O136   1.933       .  S
Zn125       O137   1.940       .  S
O127        C139   1.276       .  A
O128        C140   1.280       .  A
O129        C141   1.274       .  A
O130        C139   1.277       .  A
O131        C141   1.272   1_556  A
O132        C140   1.273       .  A
O133        C142   1.263       .  A
O134        C143   1.280       .  A
O135        C142   1.274       .  A
O136        C143   1.265       .  A
O137        C144   1.264       .  A
O138        C144   1.277       .  A
C139        C469   1.487       .  S
C140        C241   1.463       .  S
C141        C349   1.457   1_554  S
C142        C160   1.465       .  S
C143        C172   1.466       .  S
C144        C145   1.462       .  S
C145        C146   1.389       .  A
C145        C150   1.404       .  A
C146        C147   1.398       .  A
C146        H151   1.086       .  S
C147        C148   1.438       .  A
C147        C154   1.439       .  S
C148        C149   1.422       .  A
C149        C150   1.384       .  A
C149        H152   1.077       .  S
C150        C153   1.449       .  S
C153        N155   1.157       .  T
C154        N156   1.158   1_554  T
C157        C158   1.424       .  A
C157        C162   1.434       .  A
C158        C159   1.402       .  A
C158        H163   1.081       .  S
C159        C160   1.400       .  A
C159        C166   1.443       .  S
C160        C161   1.394       .  A
C161        C162   1.393       .  A
C161        H164   1.083       .  S
C162        C165   1.449       .  S
C165        N167   1.157       .  T
C166        N168   1.157       .  T
C169        C170   1.429       .  A
C169        C174   1.427       .  A
C170        C171   1.403       .  A
C170        H175   1.076       .  S
C171        C172   1.397       .  A
C171        C178   1.444       .  S
C172        C173   1.396       .  A
C173        C174   1.390       .  A
C173        H176   1.087       .  S
C174        C177   1.443       .  S
C177        N179   1.158       .  T
C178        N180   1.157   1_565  T
C181        C182   1.416       .  A
C181        C186   1.424       .  A
C182        C183   1.389       .  A
C182        H187   1.084       .  S
C183        C184   1.408       .  A
C183        C190   1.438       .  S
C184        C185   1.418       .  A
C185        C186   1.434       .  A
C185        H188   1.083       .  S
C186        C189   1.438       .  S
C189        N191   1.157       .  T
C190        N192   1.155       .  T
C193        C194   1.431       .  A
C193        C198   1.436       .  A
C194        C195   1.391       .  A
C194        H199   1.075       .  S
C195        C196   1.389       .  A
C195        C202   1.445       .  S
C196        C197   1.391       .  A
C197        C198   1.396       .  A
C197        H200   1.087       .  S
C198        C201   1.442       .  S
C201        N203   1.158       .  T
C202        N204   1.157       .  T
C205        C206   1.417       .  A
C205        C210   1.430       .  A
C206        C207   1.400       .  A
C206        H211   1.079       .  S
C207        C208   1.403       .  A
C207        C214   1.443       .  S
C208        C209   1.394       .  A
C209        C210   1.392       .  A
C209        H212   1.086       .  S
C210        C213   1.445       .  S
C213        N215   1.158       .  T
C214        N216   1.157       .  T
C217        C218   1.404   1_545  A
C217        C222   1.433       .  A
C218        C219   1.418       .  A
C218        H223   1.085       .  S
C219        C220   1.441       .  A
C219        C226   1.438       .  S
C220        C221   1.407       .  A
C221        C222   1.401   1_565  A
C221        H224   1.072       .  S
C222        C225   1.447       .  S
C225        N227   1.158       .  T
C226        N228   1.157       .  T
C229        C230   1.405       .  A
C229        C234   1.444       .  A
C230        C231   1.380       .  A
C230        H235   1.065       .  S
C231        C232   1.398       .  A
C231        C238   1.432       .  S
C232        C233   1.391       .  A
C233        C234   1.395       .  A
C233        H236   1.085       .  S
C234        C237   1.445       .  S
C237        N239   1.158       .  T
C238        N240   1.151       .  T
C241        C242   1.389       .  A
C241        C246   1.395       .  A
C242        C243   1.406       .  A
C242        H247   1.086       .  S
C243        C244   1.450       .  A
C243        C250   1.443       .  S
C244        C245   1.416       .  A
C245        C246   1.385       .  A
C245        H248   1.075   1_554  S
C246        C249   1.441   1_554  S
C249        N251   1.154       .  T
C250        N252   1.159       .  T
C253        C254   1.419       .  A
C253        C258   1.436       .  A
C254        C255   1.383       .  A
C254        H259   1.086       .  S
C255        C256   1.402       .  A
C255        C262   1.447       .  S
C256        C257   1.396       .  A
C257        C258   1.403       .  A
C257        H260   1.085       .  S
C258        C261   1.444       .  S
C261        N263   1.158       .  T
C262        N264   1.158       .  T
C265        C266   1.393       .  A
C265        C270   1.401   1_556  A
C266        C267   1.407       .  A
C266        H271   1.085       .  S
C267        C268   1.441   1_556  A
C267        C274   1.441       .  S
C268        C269   1.420       .  A
C269        C270   1.395       .  A
C269        H272   1.079       .  S
C270        C273   1.440       .  S
C273        N275   1.156       .  T
C274        N276   1.157       .  T
C277        C278   1.402       .  A
C277        C282   1.446       .  A
C278        C279   1.378       .  A
C278        H283   1.082       .  S
C279        C280   1.403       .  A
C279        C286   1.444       .  S
C280        C281   1.392       .  A
C281        C282   1.408       .  A
C281        H284   1.085       .  S
C282        C285   1.442       .  S
C285        N287   1.158       .  T
C286        N288   1.156       .  T
C289        C290   1.416       .  A
C289        C294   1.435       .  A
C290        C291   1.386       .  A
C290        H295   1.083       .  S
C291        C292   1.402       .  A
C291        C298   1.446       .  S
C292        C293   1.391       .  A
C293        C294   1.400       .  A
C293        H296   1.085       .  S
C294        C297   1.443       .  S
C297        N299   1.157       .  T
C298        N300   1.157       .  T
C301        C302   1.415       .  A
C301        C306   1.446       .  A
C302        C303   1.416       .  A
C302        H307   1.085       .  S
C303        C304   1.420       .  A
C303        C310   1.431       .  S
C304        C305   1.402       .  A
C305        C306   1.421       .  A
C305        H308   1.086       .  S
C306        C309   1.437       .  S
C309        N311   1.156       .  T
C310        N312   1.154       .  T
C313        C314   1.385       .  A
C313        C318   1.399       .  A
C314        C315   1.401       .  A
C314        H319   1.087       .  S
C315        C316   1.454       .  A
C315        C322   1.444       .  S
C316        C317   1.416       .  A
C317        C318   1.388       .  A
C317        H320   1.068       .  S
C318        C321   1.442       .  S
C321        N323   1.154       .  T
C322        N324   1.158       .  T
C325        C326   1.425       .  A
C325        C330   1.428       .  A
C326        C327   1.415       .  A
C326        H331   1.077       .  S
C327        C328   1.417       .  A
C327        C334   1.437       .  S
C328        C329   1.416       .  A
C329        C330   1.432       .  A
C329        H332   1.084       .  S
C330        C333   1.442       .  S
C333        N335   1.157       .  T
C334        N336   1.157       .  T
C337        C338   1.424       .  A
C337        C342   1.428       .  A
C338        C339   1.406       .  A
C338        H343   1.084       .  S
C339        C340   1.407       .  A
C339        C346   1.444       .  S
C340        C341   1.397       .  A
C341        C342   1.399       .  A
C341        H344   1.087       .  S
C342        C345   1.445       .  S
C345        N347   1.157       .  T
C346        N348   1.157       .  T
C349        C350   1.390       .  A
C349        C354   1.400       .  A
C350        C351   1.401       .  A
C350        H355   1.085   1_556  S
C351        C352   1.437       .  A
C351        C358   1.442       .  S
C352        C353   1.413       .  A
C353        C354   1.388       .  A
C353        H356   1.083       .  S
C354        C357   1.438       .  S
C357        N359   1.154       .  T
C358        N360   1.157       .  T
C361        C362   1.410       .  A
C361        C366   1.426       .  A
C362        C363   1.393       .  A
C362        H367   1.079       .  S
C363        C364   1.411       .  A
C363        C370   1.430       .  S
C364        C365   1.426       .  A
C365        C366   1.434       .  A
C365        H368   1.082       .  S
C366        C369   1.440   1_565  S
C369        N371   1.157       .  T
C370        N372   1.152       .  T
C373        C374   1.414       .  A
C373        C378   1.430   1_556  A
C374        C375   1.393       .  A
C374        H379   1.083       .  S
C375        C376   1.410       .  A
C375        C382   1.445       .  S
C376        C377   1.398   1_556  A
C377        C378   1.399       .  A
C377        H380   1.085       .  S
C378        C381   1.442       .  S
C381        N383   1.157       .  T
C382        N384   1.157       .  T
C385        C386   1.405       .  A
C385        C390   1.421   1_556  A
C386        C387   1.410   1_556  A
C386        H391   1.085       .  S
C387        C388   1.426       .  A
C387        C394   1.433   1_554  S
C388        C389   1.413       .  A
C389        C390   1.421       .  A
C389        H392   1.083       .  S
C390        C393   1.433       .  S
C393        N395   1.154       .  T
C394        N396   1.153       .  T
C397        C398   1.382       .  A
C397        C402   1.411       .  A
C398        C399   1.386   1_556  A
C398        H403   1.087       .  S
C399        C400   1.437       .  A
C399        C406   1.441       .  S
C400        C401   1.420   1_554  A
C401        C402   1.421       .  A
C401        H404   1.082       .  S
C402        C405   1.441       .  S
C405        N407   1.157       .  T
C406        N408   1.157       .  T
C409        C410   1.421       .  A
C409        C414   1.422       .  A
C410        C411   1.433       .  A
C410        H415   1.084       .  S
C411        C412   1.431       .  A
C411        C418   1.438       .  S
C412        C413   1.418       .  A
C413        C414   1.412       .  A
C413        H416   1.077       .  S
C414        C417   1.446       .  S
C417        N419   1.158       .  T
C418        N420   1.157       .  T
C421        C422   1.409       .  A
C421        C426   1.450   1_565  A
C422        C423   1.390   1_565  A
C422        H427   1.069   1_655  S
C423        C424   1.414       .  A
C423        C430   1.447   1_655  S
C424        C425   1.393       .  A
C425        C426   1.407       .  A
C425        H428   1.086       .  S
C426        C429   1.442       .  S
C429        N431   1.158       .  T
C430        N432   1.157   1_545  T
C433        C434   1.417       .  A
C433        C438   1.439       .  A
C434        C435   1.394       .  A
C434        H439   1.075       .  S
C435        C436   1.406       .  A
C435        C442   1.446       .  S
C436        C437   1.399       .  A
C437        C438   1.404       .  A
C437        H440   1.085       .  S
C438        C441   1.448       .  S
C441        N443   1.158       .  T
C442        N444   1.157       .  T
C445        C446   1.421       .  A
C445        C450   1.444       .  A
C446        C447   1.386   1_455  A
C446        H451   1.082       .  S
C447        C448   1.401       .  A
C447        C454   1.445       .  S
C448        C449   1.390       .  A
C449        C450   1.404   1_655  A
C449        H452   1.085       .  S
C450        C453   1.439       .  S
C453        N455   1.157   1_455  T
C454        N456   1.156       .  T
C457        C458   1.421       .  A
C457        C462   1.443       .  A
C458        C459   1.432   1_545  A
C458        H463   1.082       .  S
C459        C460   1.425       .  A
C459        C466   1.441       .  S
C460        C461   1.412   1_565  A
C461        C462   1.428       .  A
C461        H464   1.083       .  S
C462        C465   1.443       .  S
C465        N467   1.158       .  T
C466        N468   1.157       .  T
C469        C470   1.400   1_565  A
C469        C474   1.408       .  A
C470        C471   1.408       .  A
C470        H475   1.084       .  S
C471        C472   1.433       .  A
C471        C478   1.437       .  S
C472        C473   1.420   1_545  A
C473        C474   1.397       .  A
C473        H476   1.071       .  S
C474        C477   1.446       .  S
C477        N479   1.157       .  T
C478        N480   1.156       .  T
C481        C482   1.418       .  A
C481        C486   1.440       .  A
C482        C483   1.402       .  A
C482        H487   1.070       .  S
C483        C484   1.401       .  A
C483        C490   1.439       .  S
C484        C485   1.391       .  A
C485        C486   1.399       .  A
C485        H488   1.085   1_545  S
C486        C489   1.443   1_545  S
C489        N491   1.158       .  T
C490        N492   1.156       .  T
C493        C494   1.416       .  A
C493        C498   1.418       .  A
C494        C495   1.441       .  A
C494        H499   1.082       .  S
C495        C496   1.438       .  A
C495        C502   1.439       .  S
C496        C497   1.433       .  A
C497        C498   1.432       .  A
C497        H500   1.074       .  S
C498        C501   1.442       .  S
C501        N503   1.157       .  T
C502        N504   1.157       .  T
C505        C506   1.422       .  A
C505        C510   1.427       .  A
C506        C507   1.402       .  A
C506        H511   1.074       .  S
C507        C508   1.399       .  A
C507        C514   1.443       .  S
C508        C509   1.391       .  A
C509        C510   1.384       .  A
C509        H512   1.088       .  S
C510        C513   1.442       .  S
C513        N515   1.154       .  T
C514        N516   1.157       .  T
C517        C518   1.440       .  A
C517        C522   1.431       .  A
C518        C519   1.410       .  A
C518        H523   1.072       .  S
C519        C520   1.398       .  A
C519        C526   1.445       .  S
C520        C521   1.413       .  A
C521        C522   1.428       .  A
C521        H524   1.084       .  S
C522        C525   1.441       .  S
C525        N527   1.157       .  T
C526        N528   1.157       .  T
C529        C530   1.415       .  A
C529        C534   1.438       .  A
C530        C531   1.392       .  A
C530        H535   1.083       .  S
C531        C532   1.402       .  A
C531        C538   1.444       .  S
C532        C533   1.388       .  A
C533        C534   1.396       .  A
C533        H536   1.085       .  S
C534        C537   1.446       .  S
C537        N539   1.158       .  T
C538        N540   1.157       .  T
C541        C542   1.425       .  A
C541        C546   1.426       .  A
C542        C543   1.396       .  A
C542        H547   1.075       .  S
C543        C544   1.398       .  A
C543        C550   1.445   1_655  S
C544        C545   1.399       .  A
C545        C546   1.398       .  A
C545        H548   1.086   1_556  S
C546        C549   1.440   1_556  S
C549        N551   1.157       .  T
C550        N552   1.157       .  T
C553        C554   1.425       .  A
C553        C558   1.417       .  A
C554        C555   1.416       .  A
C554        H559   1.083       .  S
C555        C556   1.421       .  A
C555        C562   1.433       .  S
C556        C557   1.425       .  A
C557        C558   1.420       .  A
C557        H560   1.072   1_556  S
C558        C561   1.438   1_556  S
C561        N563   1.157       .  T
C562        N564   1.155       .  T
C565        C566   1.428       .  A
C565        C570   1.436       .  A
C566        C567   1.395       .  A
C566        H571   1.081       .  S
C567        C568   1.393       .  A
C567        C574   1.444       .  S
C568        C569   1.392       .  A
C569        C570   1.384       .  A
C569        H572   1.087       .  S
C570        C573   1.452       .  S
C573        N575   1.158       .  T
C574        N576   1.157       .  T
C577        C578   1.404       .  A
C577        C582   1.417       .  A
C578        C579   1.423       .  A
C578        H583   1.085       .  S
C579        C580   1.435       .  A
C579        C586   1.437       .  S
C580        C581   1.424       .  A
C581        C582   1.424       .  A
C581        H584   1.082       .  S
C582        C585   1.443       .  S
C585        N587   1.157       .  T
C586        N588   1.155       .  T
C589        C590   1.422       .  A
C589        C594   1.415       .  A
C590        C591   1.421       .  A
C590        H595   1.084       .  S
C591        C592   1.425       .  A
C591        C598   1.434       .  S
C592        C593   1.416       .  A
C593        C594   1.417       .  A
C593        H596   1.075       .  S
C594        C597   1.437       .  S
C597        N599   1.158       .  T
C598        N600   1.155       .  T
C601        C602   1.409       .  A
C601        C606   1.408       .  A
C602        C603   1.426       .  A
C602        H607   1.085       .  S
C603        C604   1.431       .  A
C603        C610   1.439       .  S
C604        C605   1.427       .  A
C605        C606   1.417       .  A
C605        H608   1.070       .  S
C606        C609   1.444       .  S
C609        N611   1.157       .  T
C610        N612   1.157   1_655  T
C613        C614   1.394       .  A
C613        C618   1.420   1_655  A
C614        C615   1.393       .  A
C614        H619   1.080       .  S
C615        C616   1.435   1_655  A
C615        C622   1.445       .  S
C616        C617   1.421       .  A
C617        C618   1.428       .  A
C617        H620   1.083       .  S
C618        C621   1.441       .  S
C621        N623   1.157       .  T
C622        N624   1.157       .  T
C625        C626   1.413       .  A
C625        C630   1.427   1_455  A
C626        C627   1.401   1_455  A
C626        H631   1.076       .  S
C627        C628   1.422       .  A
C627        C634   1.440   1_655  S
C628        C629   1.418       .  A
C629        C630   1.430       .  A
C629        H632   1.080       .  S
C630        C633   1.437       .  S
C633        N635   1.156       .  T
C634        N636   1.156       .  T
C637        C638   1.388       .  A
C637        C642   1.424       .  A
C638        C639   1.392       .  A
C638        H643   1.086       .  S
C639        C640   1.447       .  A
C639        C646   1.449       .  S
C640        C641   1.419       .  A
C641        C642   1.433       .  A
C641        H644   1.083       .  S
C642        C645   1.440       .  S
C645        N647   1.157       .  T
C646        N648   1.158       .  T
C649        C650   1.413       .  A
C649        C654   1.401       .  A
C650        C651   1.429       .  A
C650        H655   1.080       .  S
C651        C652   1.428       .  A
C651        C658   1.440       .  S
C652        C653   1.428       .  A
C653        C654   1.400       .  A
C653        H656   1.073       .  S
C654        C657   1.445       .  S
C657        N659   1.158       .  T
C658        N660   1.157   1_455  T
C661        C662   1.426       .  A
C661        C666   1.432       .  A
C662        C663   1.415       .  A
C662        H667   1.079       .  S
C663        C664   1.410       .  A
C663        C670   1.442       .  S
C664        C665   1.409       .  A
C665        C666   1.424       .  A
C665        H668   1.084       .  S
C666        C669   1.441       .  S
C669        N671   1.157   1_545  T
C670        N672   1.157       .  T
C673        C674   1.419       .  A
C673        C678   1.418       .  A
C674        C675   1.412       .  A
C674        H679   1.084       .  S
C675        C676   1.427       .  A
C675        C682   1.438       .  S
C676        C677   1.429       .  A
C677        C678   1.421       .  A
C677        H680   1.067       .  S
C678        C681   1.441   1_554  S
C681        N683   1.158       .  T
C682        N684   1.157       .  T
C685        C686   1.416   1_545  A
C685        C690   1.425   1_545  A
C686        C687   1.413       .  A
C686        H691   1.074       .  S
C687        C688   1.417       .  A
C687        C694   1.443       .  S
C688        C689   1.412       .  A
C689        C690   1.413       .  A
C689        H692   1.081   1_455  S
C690        C693   1.442       .  S
C693        N695   1.158       .  T
C694        N696   1.158       .  T
C697        C698   1.387       .  A
C697        C702   1.414   1_455  A
C698        C699   1.394   1_554  A
C698        H703   1.085       .  S
C699        C700   1.438   1_455  A
C699        C706   1.446       .  S
C700        C701   1.419   1_556  A
C701        C702   1.427       .  A
C701        H704   1.081       .  S
C702        C705   1.439       .  S
C705        N707   1.157       .  T
C706        N708   1.158       .  T
C709        C710   1.419       .  A
C709        C714   1.441   1_556  A
C710        C711   1.416       .  A
C710        H715   1.084       .  S
C711        C712   1.415   1_556  A
C711        C718   1.438       .  S
C712        C713   1.397       .  A
C713        C714   1.403       .  A
C713        H716   1.086       .  S
C714        C717   1.443       .  S
C717        N719   1.158   1_545  T
C718        N720   1.156       .  T
