geometry optimzed in LAMMPS
_audit_creation_date              2020-11-30 
_audit_creation_method            'lammps2cif' 
_symmetry_space_group_name_H-M    'P1' 
_symmetry_Int_Tables_number       1 
_symmetry_cell_setting            triclinic 
loop_ 
_symmetry_equiv_pos_as_xyz 
  x,y,z 
_cell_length_a                    36.56937555 
_cell_length_b                    36.87631466054952 
_cell_length_c                    22.549876868712055 
_cell_angle_alpha                 90.34203305165944 
_cell_angle_beta                  90.86020770067564 
_cell_angle_gamma                 118.83883005436488 
loop_ 
_atom_site_label 
_atom_site_type_symbol 
_atom_site_fract_x 
_atom_site_fract_y 
_atom_site_fract_z 
_atom_site_charge 
C1          C  0.22535462  0.10914252  0.41183649     0.04700
C2          C  0.20559705  0.13343381  0.42285509    -0.11500
C3          C  0.16783515  0.11643099  0.45380194     0.02200
C4          C  0.15071117  0.07599736  0.47380519    -0.10000
C5          C  0.17021422  0.05224706  0.46332725     0.04700
C6          C  0.20795321  0.06896406  0.43378578    -0.09400
H7          H  0.21901749  0.16482802  0.40689391     0.10300
H8          H  0.12169776  0.06266904  0.49784602     0.07800
H9          H  0.22228123  0.04978927  0.42459287     0.07700
C10         C  0.14059491  0.18997203  0.53343252     0.04700
C11         C  0.16423331  0.17386516  0.50657874    -0.11500
C12         C  0.14544713  0.13957732  0.46818822     0.02200
C13         C  0.10251489  0.12181259  0.45476057    -0.10000
C14         C  0.07820695  0.13775251  0.47965386     0.04700
C15         C  0.09740794  0.17212474  0.51869487    -0.09400
H16         H  0.19690331  0.18614350  0.51891045     0.10300
H17         H  0.08764919  0.09444329  0.42638550     0.07800
H18         H  0.07800587  0.18327115  0.53875882     0.07700
C19         C  0.45590693  0.09856547  0.40930432     0.04700
C20         C  0.43415712  0.05717880  0.42840273    -0.11500
C21         C  0.45400156  0.04033765  0.46383054     0.02200
C22         C  0.00718673  0.07501288  0.48004175    -0.10000
C23         C  0.03247186  0.11684963  0.46613503     0.04700
C24         C  0.01526071  0.13708375  0.43290008    -0.09400
H25         H  0.40230018  0.03732392  0.41305981     0.10300
H26         H  0.02095311  0.05915392  0.50437466     0.07800
H27         H  0.03529116  0.16902259  0.42084485     0.07700
C28         C  0.46811621  0.36188462  0.42050869     0.04700
C29         C  0.01388365  0.37623464  0.44462996    -0.11500
C30         C  0.03371196  0.41633045  0.46896181     0.02200
C31         C  0.01014781  0.43614107  0.48115886    -0.10000
C32         C  0.46355880  0.41965039  0.46691408     0.04700
C33         C  0.44441315  0.38143262  0.43600817    -0.09400
H34         H  0.03227294  0.36143657  0.43306147     0.10300
H35         H  0.02547479  0.46707706  0.50049058     0.07800
H36         H  0.41224288  0.36878985  0.42129574     0.07700
C37         C  0.38651648  0.45273661  0.52449770     0.04700
C38         C  0.40430101  0.42748071  0.50910133    -0.11500
C39         C  0.44151648  0.44385469  0.47732390     0.02200
C40         C  0.46052928  0.48535160  0.45989968    -0.10000
C41         C  0.43375458  0.99501626  0.47509939     0.04700
C42         C  0.40631944  0.49439214  0.50646089    -0.09400
H43         H  0.39109648  0.39604294  0.52456736     0.10300
H44         H  0.48921086  0.49795825  0.43522207     0.07800
H45         H  0.38083539  0.99093164  0.52167335     0.07700
C46         C  0.14423229  0.44385102  0.51627090     0.04700
C47         C  0.16616446  0.48481428  0.49695053    -0.11500
C48         C  0.14837439  0.00881850  0.47951451     0.02200
C49         C  0.10190021  0.48006387  0.45846267    -0.10000
C50         C  0.07953689  0.43912310  0.47734973     0.04700
C51         C  0.10089860  0.42078035  0.50515328    -0.09400
H52         H  0.19695348  0.01298592  0.53851374     0.10300
H53         H  0.08554510  0.49380817  0.43523950     0.07800
H54         H  0.08348883  0.38896158  0.51912738     0.07700
O55         O  0.29943044  0.37696435  0.76102851    -0.83800
O56         O  0.23120354  0.30723826  0.79901806    -0.80800
C57         C  0.19428238  0.28691177  0.81637562     0.99700
O58         O  0.16541914  0.29109493  0.79150629    -0.80900
O59         O  0.17717505  0.37088735  0.80867314    -0.83500
C60         C  0.19005639  0.40906007  0.80170482     1.04200
O61         O  0.20860593  0.42633956  0.75502302    -0.76300
O62         O  0.28103030  0.42503540  0.77787881    -0.76500
C63         C  0.30411098  0.40924005  0.78880932     1.04200
O64         O  0.27015897  0.35019214  0.63832304    -0.83800
O65         O  0.20189305  0.28115744  0.67686861    -0.80800
C66         C  0.16749370  0.27540920  0.65366142     0.99700
O67         O  0.15111247  0.29715476  0.66863434    -0.80900
O68         O  0.15363524  0.37094659  0.68522275    -0.83500
C69         C  0.17243304  0.39063155  0.63966113     1.04200
O70         O  0.21111073  0.40370878  0.63437370    -0.76300
O71         O  0.29139513  0.41542210  0.65617363    -0.76400
C72         C  0.29326470  0.38754526  0.62608000     1.04100
Cr73       Cr  0.24839895  0.33114043  0.71898604     1.93700
Cr74       Cr  0.16631586  0.33454885  0.73769787     1.93200
Cr75       Cr  0.24588815  0.41304239  0.70659045     1.39100
O76         O  0.22027211  0.35911941  0.72111782    -1.21500
C77         C  0.46271177  0.10894512  0.02357084     0.04700
C78         C  0.00740973  0.13313264  0.02320030    -0.11500
C79         C  0.02818742  0.11711749  0.98791801     0.02200
C80         C  0.00530167  0.07692861  0.96414929    -0.10000
C81         C  0.46104646  0.04924446  0.97352472     0.04700
C82         C  0.44061156  0.06760677  0.00312976    -0.09400
H83         H  0.02534435  0.16360403  0.04312842     0.10300
H84         H  0.02085910  0.06402513  0.93759151     0.07800
H85         H  0.40775826  0.04897759  0.01272251     0.07700
C86         C  0.39649553  0.43685091  0.89813901     0.04700
C87         C  0.41265132  0.47899473  0.91517658    -0.11500
C88         C  0.43908024  0.00480845  0.95664040     0.02200
C89         C  0.46630382  0.47549305  0.97491656    -0.10000
C90         C  0.45070122  0.43392181  0.95833202     0.04700
C91         C  0.41556073  0.41460016  0.92087626    -0.09400
H92         H  0.39176738  0.00818207  0.90294209     0.10300
H93         H  0.49398657  0.49054785  0.00330284     0.07800
H94         H  0.40445049  0.38274048  0.90689036     0.07700
C95         C  0.48289770  0.35825215  0.02194101     0.04700
C96         C  0.45752936  0.37548705  0.00383906    -0.11500
C97         C  0.47500437  0.41298754  0.97362519     0.02200
C98         C  0.01081309  0.43281817  0.96494422    -0.10000
C99         C  0.03753844  0.41875830  0.98740885     0.04700
C100        C  0.02217960  0.38529705  0.02595421    -0.09400
H101        H  0.42474735  0.36065801  0.01456367     0.10300
H102        H  0.02281046  0.45899044  0.93537002     0.07800
H103        H  0.04316937  0.37499995  0.04420060     0.07700
C104        C  0.14201060  0.44179854  0.92654706     0.04700
C105        C  0.10134335  0.41980839  0.94786674    -0.11500
C106        C  0.08199489  0.44086833  0.97256280     0.02200
C107        C  0.10407849  0.48389463  0.97886567    -0.10000
C108        C  0.13747471  0.00378303  0.94287898     0.04700
C109        C  0.16418462  0.48543424  0.93306352    -0.09400
H110        H  0.08369304  0.38649611  0.94161961     0.10300
H111        H  0.08895231  0.49974939  0.99926934     0.07800
H112        H  0.18568556  0.99846960  0.89519118     0.07700
C113        C  0.21883709  0.10452561  0.01452948     0.04700
C114        C  0.19936136  0.06395366  0.99101293    -0.11500
C115        C  0.16201921  0.04860142  0.95789054     0.02200
C116        C  0.14431874  0.07450486  0.94757726    -0.10000
C117        C  0.16290226  0.11506716  0.97076056     0.04700
C118        C  0.20061205  0.13021508  0.00354174    -0.09400
H119        H  0.21199669  0.04346053  0.00143194     0.10300
H120        H  0.11482850  0.06238692  0.92333394     0.07800
H121        H  0.21380126  0.16072703  0.02381041     0.07700
C122        C  0.13216621  0.19659560  0.92460147     0.04700
C123        C  0.09106504  0.17829121  0.94609336    -0.11500
C124        C  0.07385197  0.14054141  0.97611635     0.02200
C125        C  0.09867534  0.12147875  0.98600345    -0.10000
C126        C  0.13985963  0.13912579  0.96580410     0.04700
C127        C  0.15665908  0.17696932  0.93569611    -0.09400
H128        H  0.07139352  0.19204931  0.93601014     0.10300
H129        H  0.08525552  0.09176261  0.00770153     0.07800
H130        H  0.18758252  0.18917817  0.91784556     0.07700
O131        O  0.39692563  0.27941668  0.18000228    -0.83800
O132        O  0.33650233  0.20654399  0.12946630    -0.80800
C133        C  0.31394062  0.16844340  0.11862705     0.99700
O134        O  0.31518146  0.14165371  0.15292465    -0.80900
O135        O  0.39380756  0.14778652  0.14315846    -0.83500
C136        C  0.43335816  0.16658416  0.14337481     1.04200
O137        O  0.45386355  0.19505435  0.18109241    -0.76300
O138        O  0.44319987  0.26171126  0.15292279    -0.76500
C139        C  0.42616367  0.28413768  0.14698164     1.04200
O140        O  0.36744415  0.24850467  0.29389968    -0.83800
O141        O  0.30099913  0.18017510  0.24174263    -0.80800
C142        C  0.29850315  0.15518303  0.28098527     0.99700
O143        O  0.32432156  0.14158606  0.28247406    -0.80900
O144        O  0.39988642  0.14103020  0.27048664    -0.83500
C145        C  0.42660155  0.16656964  0.30754256     1.04200
O146        O  0.43921296  0.20482642  0.30308163    -0.76300
O147        O  0.43468551  0.27518087  0.27827021    -0.76400
C148        C  0.40477145  0.27353204  0.30828802     1.04100
Cr149      Cr  0.35298650  0.22657875  0.21175503     1.93700
Cr150      Cr  0.35991444  0.14692110  0.21269544     1.93200
Cr151      Cr  0.43857104  0.23197099  0.22793663     1.39100
O152        O  0.38400074  0.20158676  0.21760244    -1.21500
C153        C  0.25454439  0.11672272  0.05716348    -0.14900
C154        C  0.28331930  0.15620775  0.06870311    -0.30000
H155        H  0.25640000  0.09218581  0.08122599     0.14200
H156        H  0.28284200  0.18089327  0.04327963     0.14500
C157        C  0.46740677  0.32227565  0.06130111    -0.14900
C158        C  0.44009078  0.31710707  0.10347305    -0.30000
H159        H  0.48141905  0.30215465  0.05937159     0.14200
H160        H  0.42758180  0.33839371  0.10736004     0.14700
C161        C  0.43931664  0.12486558  0.05990981    -0.14900
C162        C  0.45732606  0.15519115  0.10128457    -0.30000
H163        H  0.40542614  0.10827404  0.05633890     0.14200
H164        H  0.49103083  0.17108853  0.10717030     0.14700
C165        C  0.18473649  0.25626191  0.86434917    -0.14900
C166        C  0.14562392  0.23275425  0.88416543    -0.30000
H167        H  0.21022605  0.25188172  0.88122018     0.14200
H168        H  0.12127860  0.23916793  0.86763374     0.14700
C169        C  0.33737440  0.43042231  0.83409621    -0.14900
C170        C  0.36233687  0.41552483  0.85307597    -0.30000
H171        H  0.34023242  0.45875518  0.85307530     0.14200
H172        H  0.35736310  0.38606537  0.83493971     0.14700
C173        C  0.18175728  0.43418647  0.84474628    -0.14900
C174        C  0.15816852  0.41823913  0.89244427    -0.30000
H175        H  0.19240155  0.46624396  0.83328736     0.14200
H176        H  0.14558023  0.38547213  0.90138360     0.14700
C177        C  0.16705923  0.42737007  0.55192911    -0.14900
C178        C  0.14869001  0.40050032  0.59574480    -0.30000
H179        H  0.20066905  0.44141971  0.54702191     0.14200
H180        H  0.11567396  0.38835682  0.60382624     0.14700
C181        C  0.35036759  0.43856932  0.56495762    -0.14900
C182        C  0.32437614  0.39872783  0.57860022    -0.30000
H183        H  0.34584014  0.46259614  0.58625988     0.14200
H184        H  0.32678299  0.37376031  0.55660992     0.14700
C185        C  0.41374401  0.30332119  0.35774112    -0.14900
C186        C  0.45295466  0.32577537  0.37917154    -0.30000
H187        H  0.38846496  0.30768430  0.37441435     0.14200
H188        H  0.47653449  0.31856387  0.36262111     0.14700
C189        C  0.43456556  0.11275382  0.36503878    -0.14900
C190        C  0.44566432  0.15276730  0.35521011    -0.30000
H191        H  0.40846905  0.08904129  0.33942871     0.14200
H192        H  0.47036934  0.17677738  0.38226952     0.14700
C193        C  0.14473989  0.24258884  0.60842231    -0.14900
C194        C  0.16226941  0.22306476  0.57971442    -0.30000
H195        H  0.11321285  0.23602092  0.59725417     0.14200
H196        H  0.19453932  0.23181976  0.59086708     0.14700
C197        C  0.26437014  0.14271727  0.32311936    -0.14900
C198        C  0.26212560  0.12311750  0.37364503    -0.30000
H199        H  0.24019890  0.15084320  0.31215382     0.14200
H200        H  0.28523639  0.11341611  0.38381143     0.14700
C201        C  0.22582364  0.60413273  0.40328057     0.04700
C202        C  0.20650051  0.62916182  0.41157817    -0.11500
C203        C  0.16744262  0.61299173  0.43919791     0.02200
C204        C  0.14864224  0.57221392  0.45928010    -0.10000
C205        C  0.16741473  0.54721744  0.45131532     0.04700
C206        C  0.20633381  0.56364101  0.42438380    -0.09400
H207        H  0.22126645  0.66064069  0.39575345     0.10300
H208        H  0.11913295  0.55989421  0.48180605     0.07800
H209        H  0.22040824  0.54407208  0.41665094     0.07700
C210        C  0.14179146  0.69473628  0.49813381     0.04700
C211        C  0.16485037  0.67559307  0.47870467    -0.11500
C212        C  0.14520879  0.63746759  0.44818503     0.02200
C213        C  0.10223112  0.61953375  0.43433774    -0.10000
C214        C  0.07858771  0.63857256  0.45158929     0.04700
C215        C  0.09872187  0.67646560  0.48324269    -0.09400
H216        H  0.19753940  0.68877890  0.49144943     0.10300
H217        H  0.08673546  0.58976206  0.41152752     0.07800
H218        H  0.08053394  0.69075023  0.49793608     0.07700
C219        C  0.46820304  0.61414185  0.40585706     0.04700
C220        C  0.44585926  0.57352197  0.42731610    -0.11500
C221        C  0.46622688  0.55546950  0.45859734     0.02200
C222        C  0.00976680  0.57474859  0.46130417    -0.10000
C223        C  0.03219976  0.61584410  0.44234553     0.04700
C224        C  0.01046308  0.63356831  0.41281103    -0.09400
H225        H  0.41283176  0.55499132  0.41678253     0.10300
H226        H  0.02627143  0.56109854  0.48438841     0.07800
H227        H  0.02788186  0.66522601  0.39834168     0.07700
C228        C  0.46816400  0.85457630  0.40388142     0.04700
C229        C  0.02278848  0.88412735  0.43215120    -0.11500
C230        C  0.03896790  0.92220592  0.46209421     0.02200
C231        C  0.01416265  0.94113894  0.46994377    -0.10000
C232        C  0.46119905  0.90905756  0.45562978     0.04700
C233        C  0.44417614  0.87372293  0.41884269    -0.09400
H234        H  0.04276012  0.87049782  0.42413982     0.10300
H235        H  0.02704271  0.97070436  0.49324658     0.07800
H236        H  0.41338066  0.86313775  0.39955403     0.07700
C237        C  0.37926983  0.93109346  0.51813760     0.04700
C238        C  0.40004723  0.91010231  0.49820424    -0.11500
C239        C  0.43759039  0.93087269  0.46882622     0.02200
C240        C  0.45440352  0.97315076  0.45735828    -0.10000
C241        C  0.44358228  0.51101130  0.47471876     0.04700
C242        C  0.39578360  0.97375981  0.50550740    -0.09400
H243        H  0.38813940  0.87766500  0.50846978     0.10300
H244        H  0.48392173  0.98915847  0.43486969     0.07800
H245        H  0.39358306  0.51439722  0.51908272     0.07700
C246        C  0.14135962  0.95346796  0.54338364     0.04700
C247        C  0.16550277  0.99336116  0.52139231    -0.11500
C248        C  0.14506171  0.50330753  0.46869928     0.02200
C249        C  0.10763964  0.98431133  0.45822571    -0.10000
C250        C  0.08307760  0.94482410  0.48022610     0.04700
C251        C  0.09975562  0.92917466  0.52271628    -0.09400
H252        H  0.19936093  0.50292799  0.50654073     0.10300
H253        H  0.09438454  0.99677385  0.42613627     0.07800
H254        H  0.07944668  0.89924314  0.54129236     0.07700
O255        O  0.27685564  0.84489197  0.76916897    -0.83800
O256        O  0.20362764  0.77393663  0.74844696    -0.80800
C257        C  0.18097510  0.77206092  0.79174543     0.99700
O258        O  0.16729989  0.79742783  0.79668032    -0.80900
O259        O  0.15913980  0.86775502  0.77776663    -0.83500
C260        C  0.18794969  0.89628134  0.80886850     1.04200
O261        O  0.22531096  0.90703778  0.79879669    -0.76300
O262        O  0.29448633  0.90990215  0.75247384    -0.76500
C263        C  0.29971138  0.88288039  0.78024404     1.04200
O264        O  0.28415001  0.86571853  0.64579676    -0.83800
O265        O  0.20608185  0.79677857  0.62509975    -0.80800
C266        C  0.16739342  0.77234162  0.62877766     0.99700
O267        O  0.14787328  0.77419121  0.67360691    -0.80900
O268        O  0.14971645  0.84744970  0.65406948    -0.83500
C269        C  0.16429914  0.88571061  0.64809916     1.04200
O270        O  0.19418372  0.91146384  0.68102226    -0.76300
O271        O  0.26117280  0.91024454  0.63515541    -0.76400
C272        C  0.28476788  0.89635938  0.61948822     1.04100
Cr273      Cr  0.24080737  0.82239351  0.69786587     1.93700
Cr274      Cr  0.16005456  0.82375088  0.72514726     1.93200
Cr275      Cr  0.24171491  0.90542637  0.71669490     1.39100
O276        O  0.21443223  0.85063609  0.71332501    -1.21500
C277        C  0.46793421  0.60211284  0.01774142     0.04700
C278        C  0.99801038  0.62402531  0.00152399    -0.11500
C279        C  0.01849082  0.60752964  0.96727494     0.02200
C280        C  0.99667477  0.56595867  0.94882848    -0.10000
C281        C  0.46806512  0.54332102  0.96726793     0.04700
C282        C  0.44699691  0.56049625  0.99814504    -0.09400
H283        H  0.01575244  0.65561180  0.01769156     0.10300
H284        H  0.01248090  0.55293594  0.92306073     0.07800
H285        H  0.41464176  0.54073675  0.00944802     0.07700
C286        C  0.38745682  0.94767464  0.89520649     0.04700
C287        C  0.40431113  0.98842298  0.91785981    -0.11500
C288        C  0.44776343  0.49836367  0.95336947     0.02200
C289        C  0.45618379  0.97981929  0.97448770    -0.10000
C290        C  0.43992923  0.93920135  0.95281516     0.04700
C291        C  0.40542016  0.92302706  0.91361560    -0.09400
H292        H  0.39994456  0.49766448  0.89686277     0.10300
H293        H  0.48362003  0.99271052  0.00348713     0.07800
H294        H  0.39486710  0.89237518  0.89533690     0.07700
C295        C  0.47186634  0.85984077  0.00432964     0.04700
C296        C  0.44651034  0.87817417  0.99085632    -0.11500
C297        C  0.46391655  0.91705134  0.96370040     0.02200
C298        C  0.00187295  0.93706452  0.94840584    -0.10000
C299        C  0.02682623  0.91946964  0.96316435     0.04700
C300        C  0.01027174  0.88293217  0.99531270    -0.09400
H301        H  0.41387435  0.86308322  0.00224944     0.10300
H302        H  0.01489220  0.96544627  0.92326890     0.07800
H303        H  0.03026709  0.86990704  0.00759761     0.07700
C304        C  0.12801603  0.93980035  0.89565911     0.04700
C305        C  0.08677919  0.91951964  0.91435891    -0.11500
C306        C  0.07077551  0.94060157  0.94685472     0.02200
C307        C  0.09597175  0.98247465  0.96103184    -0.10000
C308        C  0.14495139  0.50667954  0.95865055     0.04700
C309        C  0.15395168  0.98211261  0.91071962    -0.09400
H310        H  0.06651773  0.88731082  0.90206755     0.10300
H311        H  0.08310352  0.99855095  0.98653037     0.07800
H312        H  0.19565716  0.50290681  0.91695930     0.07700
C313        C  0.22339441  0.61848295  0.99867225     0.04700
C314        C  0.20668965  0.57578456  0.98561229    -0.11500
C315        C  0.16574602  0.55258059  0.96298394     0.02200
C316        C  0.14245298  0.57277520  0.95017390    -0.10000
C317        C  0.15853411  0.61505338  0.96243566     0.04700
C318        C  0.19924464  0.63779923  0.98590685    -0.09400
H319        H  0.22441027  0.55996499  0.99504538     0.10300
H320        H  0.11122439  0.55523672  0.93120828     0.07800
H321        H  0.21138767  0.67026002  0.99719257     0.07700
C322        C  0.12278502  0.69078420  0.91042577     0.04700
C323        C  0.08067155  0.67039963  0.92718041    -0.11500
C324        C  0.06378406  0.63180991  0.95501636     0.02200
C325        C  0.08976773  0.61441956  0.96747945    -0.10000
C326        C  0.13205762  0.63487923  0.95238828     0.04700
C327        C  0.14849583  0.67341439  0.92514675    -0.09400
H328        H  0.06052263  0.68335608  0.91560411     0.10300
H329        H  0.07690119  0.58472051  0.98911404     0.07800
H330        H  0.18116335  0.68915349  0.91389696     0.07700
O331        O  0.38740553  0.76888954  0.15540861    -0.83800
O332        O  0.33058247  0.68851161  0.11607104    -0.80800
C333        C  0.31270776  0.64929373  0.11267783     0.99700
O334        O  0.31921975  0.62839268  0.15180476    -0.80900
O335        O  0.39906394  0.63988378  0.14005559    -0.83500
C336        C  0.43772048  0.66300133  0.13163221     1.04200
O337        O  0.45787540  0.69715285  0.15909405    -0.76300
O338        O  0.43745015  0.75739841  0.12652401    -0.76500
C339        C  0.41693453  0.77664144  0.12140737     1.04200
O340        O  0.36751265  0.74430959  0.27354610    -0.83800
O341        O  0.30226934  0.66997548  0.23180053    -0.80800
C342        C  0.30344346  0.65003652  0.27568613     0.99700
O343        O  0.33238113  0.64063666  0.28039465    -0.80900
O344        O  0.41040342  0.64679311  0.26620164    -0.83500
C345        C  0.43928788  0.67642031  0.29516723     1.04200
O346        O  0.45111709  0.71345760  0.28138951    -0.76300
O347        O  0.43426526  0.77546473  0.25163295    -0.76400
C348        C  0.40490248  0.77120311  0.28512305     1.04100
Cr349      Cr  0.35017369  0.71643896  0.19470110     1.93700
Cr350      Cr  0.36674141  0.64318965  0.20921519     1.93200
Cr351      Cr  0.44066622  0.73294096  0.20417427     1.39100
O352        O  0.38629294  0.69731569  0.20239629    -1.21500
C353        C  0.26377852  0.64323693  0.03137027    -0.14900
C354        C  0.28063156  0.62587900  0.06682121    -0.30000
H355        H  0.27684751  0.67669670  0.03287905     0.14200
H356        H  0.26687820  0.59249607  0.06866796     0.14500
C357        C  0.45729334  0.82137351  0.03895849    -0.14900
C358        C  0.42739616  0.81024122  0.07906969    -0.30000
H359        H  0.47462173  0.80437040  0.03621354     0.14200
H360        H  0.41104556  0.82799477  0.08413024     0.14700
C361        C  0.44392065  0.61682710  0.05519383    -0.14900
C362        C  0.46154034  0.65079462  0.09053280    -0.30000
H363        H  0.41023443  0.59736673  0.05638996     0.14200
H364        H  0.49515380  0.67031052  0.09131913     0.14700
C365        C  0.16877718  0.73809608  0.83394502    -0.14900
C366        C  0.13861373  0.72862894  0.87403310    -0.30000
H367        H  0.18281150  0.71830272  0.82796960     0.14200
H368        H  0.12260200  0.74690891  0.87630183     0.14700
C369        C  0.33311156  0.89515155  0.82578211    -0.14900
C370        C  0.35361236  0.93375450  0.84895601    -0.30000
H371        H  0.33918345  0.87092364  0.84182037     0.14200
H372        H  0.34506465  0.95652404  0.83321552     0.14700
C373        C  0.17846554  0.91999303  0.85316848    -0.14900
C374        C  0.14020261  0.91602930  0.85525117    -0.30000
H375        H  0.20345143  0.94240998  0.88170644     0.14200
H376        H  0.11557566  0.89285081  0.82692686     0.14700
C377        C  0.15980045  0.93948242  0.59052683    -0.14900
C378        C  0.14515427  0.89948697  0.60263624    -0.30000
H379        H  0.18716222  0.96272779  0.61464801     0.14200
H380        H  0.11945112  0.87556383  0.57691496     0.14700
C381        C  0.34374848  0.90751886  0.55786575    -0.14900
C382        C  0.31531133  0.91861147  0.57303468    -0.30000
H383        H  0.34153962  0.87953901  0.57701863     0.14200
H384        H  0.31567882  0.94568099  0.55377679     0.14700
C385        C  0.41463844  0.79931581  0.33673820    -0.14900
C386        C  0.45422955  0.82165734  0.35744277    -0.30000
H387        H  0.38911275  0.80132857  0.35747545     0.14200
H388        H  0.47833691  0.81647113  0.33783608     0.14700
C389        C  0.44587615  0.62833798  0.36421506    -0.14900
C390        C  0.46075763  0.66726354  0.34434545    -0.30000
H391        H  0.41583841  0.60458255  0.34683282     0.14200
H392        H  0.48953008  0.69243199  0.36243218     0.14700
C393        C  0.14439352  0.73975575  0.58297159    -0.14900
C394        C  0.16340926  0.73195345  0.53779403    -0.30000
H395        H  0.11126041  0.71970949  0.58945843     0.14200
H396        H  0.19703460  0.75074196  0.53403154     0.14700
C397        C  0.26938826  0.63863618  0.31816746    -0.14900
C398        C  0.26435673  0.61768076  0.36822570    -0.30000
H399        H  0.24600105  0.64756962  0.30587445     0.14200
H400        H  0.28591408  0.60622608  0.37950224     0.14700
C401        C  0.70469659  0.09423783  0.39178247     0.04700
C402        C  0.68623173  0.11881996  0.40791576    -0.11500
C403        C  0.65101625  0.10247759  0.44401088     0.02200
C404        C  0.63492502  0.06211092  0.46454604    -0.10000
C405        C  0.65348848  0.03798294  0.44961123     0.04700
C406        C  0.68819813  0.05393387  0.41329176    -0.09400
H407        H  0.69776859  0.14969281  0.39072052     0.10300
H408        H  0.60773384  0.04933105  0.49246776     0.07800
H409        H  0.70169753  0.03458025  0.40064854     0.07700
C410        C  0.62901647  0.17945254  0.52557592     0.04700
C411        C  0.65066283  0.16099477  0.49907109    -0.11500
C412        C  0.63014297  0.12656691  0.46121083     0.02200
C413        C  0.58760403  0.11092166  0.44788676    -0.10000
C414        C  0.56492058  0.12877422  0.47263602     0.04700
C415        C  0.58574909  0.16326033  0.51155044    -0.09400
H416        H  0.68325734  0.17195767  0.51058247     0.10300
H417        H  0.57156540  0.08340380  0.41998769     0.07800
H418        H  0.56761798  0.17560889  0.53243645     0.07700
C419        C  0.97357854  0.11602827  0.41163300     0.04700
C420        C  0.94833630  0.07358604  0.42631449    -0.11500
C421        C  0.96511619  0.05271872  0.46041938     0.02200
C422        C  0.49592420  0.06558968  0.48129325    -0.10000
C423        C  0.51863704  0.10683385  0.46291356     0.04700
C424        C  0.49837613  0.12337871  0.42723772    -0.09400
H425        H  0.91685766  0.05600406  0.40857213     0.10300
H426        H  0.51177584  0.05231935  0.50692351     0.07800
H427        H  0.51655132  0.15432446  0.41032087     0.07700
C428        C  0.97117768  0.35662571  0.43017815     0.04700
C429        C  0.51038755  0.38039947  0.43793644    -0.11500
C430        C  0.52966632  0.41854758  0.46777438     0.02200
C431        C  0.50596578  0.43757224  0.48307930    -0.10000
C432        C  0.96724564  0.41687783  0.46782979     0.04700
C433        C  0.94764168  0.37668321  0.44332982    -0.09400
H434        H  0.52926999  0.36652610  0.42446283     0.10300
H435        H  0.52102236  0.46731894  0.50602645     0.07800
H436        H  0.91459772  0.36191357  0.43239229     0.07700
C437        C  0.88637174  0.44775927  0.51545970     0.04700
C438        C  0.90586993  0.42348874  0.50416186    -0.11500
C439        C  0.94435533  0.44057489  0.47549229     0.02200
C440        C  0.96279255  0.48175549  0.45674975    -0.10000
C441        C  0.94259537  0.00647932  0.46763904     0.04700
C442        C  0.90587478  0.48926893  0.49687287    -0.09400
H443        H  0.89277196  0.39224180  0.52037875     0.10300
H444        H  0.99204978  0.49466106  0.43348885     0.07800
H445        H  0.89026954  0.00146742  0.51791981     0.07700
C446        C  0.64086930  0.44445296  0.50926581     0.04700
C447        C  0.66276808  0.48536046  0.48952772    -0.11500
C448        C  0.63413872  0.99506248  0.46917354     0.02200
C449        C  0.59778849  0.48209282  0.45746595    -0.10000
C450        C  0.57551042  0.44111976  0.47601155     0.04700
C451        C  0.59715804  0.42204794  0.50079022    -0.09400
H452        H  0.68658118  0.00314067  0.52293145     0.10300
H453        H  0.58114026  0.49640040  0.43655444     0.07800
H454        H  0.57968766  0.39006433  0.51398327     0.07700
O455        O  0.79660856  0.37116741  0.74868840    -0.83800
O456        O  0.72744225  0.30291378  0.78579783    -0.80800
C457        C  0.69040017  0.28249250  0.80226836     0.99700
O458        O  0.66176007  0.28622642  0.77602981    -0.80900
O459        O  0.67614548  0.36658618  0.79454831    -0.83500
C460        C  0.68984267  0.40491833  0.78823112     1.04200
O461        O  0.70744367  0.42218259  0.74107709    -0.76300
O462        O  0.77941039  0.42037007  0.76255214    -0.76500
C463        C  0.80173904  0.40402979  0.77530138     1.04200
O464        O  0.76801465  0.34442043  0.62527677    -0.83800
O465        O  0.69762572  0.27585718  0.66309288    -0.80800
C466        C  0.66315403  0.27044283  0.64003492     0.99700
O467        O  0.64797236  0.29347569  0.65387837    -0.80900
O468        O  0.65172406  0.36789995  0.67214171    -0.83500
C469        C  0.67023380  0.38786357  0.62664819     1.04200
O470        O  0.70861389  0.39986693  0.61999687    -0.76300
O471        O  0.78846200  0.40982829  0.64096027    -0.76400
C472        C  0.79096855  0.38172558  0.61243911     1.04100
Cr473      Cr  0.74517116  0.32582831  0.70559257     1.93700
Cr474      Cr  0.66388398  0.33058650  0.72323017     1.93200
Cr475      Cr  0.74382922  0.40844143  0.69174695     1.39100
O476        O  0.71774795  0.35451367  0.70641414    -1.21500
C477        C  0.96417477  0.10841320  0.03496438     0.04700
C478        C  0.50582534  0.13265228  0.01062480    -0.11500
C479        C  0.52652327  0.11440865  0.97998115     0.02200
C480        C  0.50365937  0.07277434  0.96209218    -0.10000
C481        C  0.96266252  0.05280036  0.97473160     0.04700
C482        C  0.94232417  0.06865372  0.00945601    -0.09400
H483        H  0.52335846  0.16478803  0.02453244     0.10300
H484        H  0.51906944  0.05850060  0.93821110     0.07800
H485        H  0.90955967  0.04902994  0.01882052     0.07700
C486        C  0.88979172  0.43283441  0.89506665     0.04700
C487        C  0.90337948  0.47465744  0.91215940    -0.11500
C488        C  0.94076451  0.00915739  0.95547636     0.02200
C489        C  0.95627180  0.47406349  0.97725241    -0.10000
C490        C  0.94331813  0.43288117  0.96131550     0.04700
C491        C  0.90981300  0.41220825  0.92099819    -0.09400
H492        H  0.89601654  0.01463578  0.89843828     0.10300
H493        H  0.98295659  0.49031424  0.00715935     0.07800
H494        H  0.90074782  0.38066087  0.90762491     0.07700
C495        C  0.98034912  0.36614263  0.04288675     0.04700
C496        C  0.95359830  0.38062633  0.01996478    -0.11500
C497        C  0.96897167  0.41410738  0.98114600     0.02200
C498        C  0.51705084  0.43210964  0.95915656    -0.10000
C499        C  0.54226834  0.41493160  0.97594576     0.04700
C500        C  0.52496288  0.37761070  0.00657911    -0.09400
H501        H  0.92171891  0.36777180  0.03444368     0.10300
H502        H  0.53014815  0.46062994  0.93439685     0.07800
H503        H  0.54470143  0.36480787  0.02117918     0.07700
C504        C  0.64686226  0.43759603  0.91744947     0.04700
C505        C  0.60617710  0.41577997  0.93815830    -0.11500
C506        C  0.58683218  0.43703123  0.96213786     0.02200
C507        C  0.60908514  0.48016546  0.96818461    -0.10000
C508        C  0.64109906  0.00384276  0.93762817     0.04700
C509        C  0.66914668  0.48106014  0.92367621    -0.09400
H510        H  0.58848433  0.38250928  0.93143258     0.10300
H511        H  0.59444026  0.49647714  0.98860391     0.07800
H512        H  0.69016510  0.99849913  0.89303428     0.07700
C513        C  0.72178410  0.10803084  0.00065734     0.04700
C514        C  0.70364461  0.06719205  0.97845587    -0.11500
C515        C  0.66466177  0.04921064  0.94906704     0.02200
C516        C  0.64478327  0.07323555  0.93917095    -0.10000
C517        C  0.66255450  0.11430927  0.95973422     0.04700
C518        C  0.70153077  0.13188930  0.98953929    -0.09400
H519        H  0.71817811  0.04828098  0.98843851     0.10300
H520        H  0.61445659  0.05939129  0.91694496     0.07800
H521        H  0.71507889  0.16351849  0.00574375     0.07700
C522        C  0.62864395  0.19273834  0.91059169     0.04700
C523        C  0.58794025  0.17448605  0.93333996    -0.11500
C524        C  0.57180180  0.13755620  0.96532898     0.02200
C525        C  0.59738551  0.11927359  0.97551346    -0.10000
C526        C  0.63823114  0.13702086  0.95387276     0.04700
C527        C  0.65381861  0.17395455  0.92193296    -0.09400
H528        H  0.56782297  0.18771188  0.92306480     0.10300
H529        H  0.58497826  0.09028092  0.99899755     0.07800
H530        H  0.68440168  0.18608058  0.90293905     0.07700
O531        O  0.87406369  0.25021865  0.14452672    -0.83800
O532        O  0.79929087  0.18356076  0.17430056    -0.80800
C533        C  0.79853198  0.16030863  0.13293870     0.99700
O534        O  0.82439747  0.14692630  0.13386359    -0.80900
O535        O  0.89520432  0.14051896  0.16254518    -0.83500
C536        C  0.92930121  0.16845628  0.14180688     1.04200
O537        O  0.94495034  0.20539808  0.15937057    -0.76300
O538        O  0.93802418  0.27397135  0.18130255    -0.76500
C539        C  0.91271209  0.27440780  0.14192876     1.04200
O540        O  0.89000809  0.27531211  0.26455710    -0.83800
O541        O  0.82325998  0.20089955  0.29460121    -0.80800
C542        C  0.79947117  0.16246088  0.29771013     0.99700
O543        O  0.80171235  0.13729530  0.26052343    -0.80900
O544        O  0.87261910  0.13272468  0.28573896    -0.83500
C545        C  0.91003240  0.14913166  0.30381672     1.04200
O546        O  0.93742689  0.18324484  0.28271912    -0.76300
O547        O  0.92734190  0.25153604  0.30794717    -0.76400
C548        C  0.91352534  0.27685025  0.30666560     1.04100
Cr549      Cr  0.84905774  0.22527086  0.21962296     1.93700
Cr550      Cr  0.85055200  0.14352261  0.21110080     1.93200
Cr551      Cr  0.93265752  0.22634722  0.23242126     1.39100
O552        O  0.87779756  0.19795706  0.22112932    -1.21500
C553        C  0.75942006  0.12303102  0.04045660    -0.14900
C554        C  0.76563854  0.14871797  0.08655967    -0.30000
H555        H  0.77968831  0.10928908  0.03582746     0.14200
H556        H  0.74396569  0.16055625  0.09326334     0.14500
C557        C  0.96681977  0.33359567  0.08834261    -0.14900
C558        C  0.92691490  0.30474140  0.09409080    -0.30000
H559        H  0.99049554  0.33330678  0.11779288     0.14200
H560        H  0.90324187  0.30335697  0.06311991     0.14700
C561        C  0.94050370  0.12027084  0.07715361    -0.14900
C562        C  0.95298456  0.15879905  0.09733958    -0.30000
H563        H  0.91087171  0.09564944  0.09241552     0.14200
H564        H  0.98182477  0.18431189  0.08186123     0.14700
C565        C  0.68064253  0.25241546  0.85081366    -0.14900
C566        C  0.64130363  0.22801220  0.86895247    -0.30000
H567        H  0.70639299  0.24935512  0.86987986     0.14200
H568        H  0.61651629  0.23306822  0.85051918     0.14700
C569        C  0.83448943  0.42576383  0.82151013    -0.14900
C570        C  0.85707925  0.41025170  0.84777811    -0.30000
H571        H  0.83836486  0.45552603  0.83557514     0.14200
H572        H  0.85128780  0.37958248  0.83414214     0.14700
C573        C  0.68339430  0.43013469  0.83273296    -0.14900
C574        C  0.66265868  0.41438859  0.88258072    -0.30000
H575        H  0.69271719  0.46190503  0.82097613     0.14200
H576        H  0.65124508  0.38187237  0.89221225     0.14700
C577        C  0.66423315  0.42715989  0.54213281    -0.14900
C578        C  0.64640830  0.39925633  0.58494929    -0.30000
H579        H  0.69772081  0.44111185  0.53599064     0.14200
H580        H  0.61361636  0.38727362  0.59444885     0.14700
C581        C  0.84857548  0.43285303  0.55263721    -0.14900
C582        C  0.82298715  0.39292187  0.56636775    -0.30000
H583        H  0.84258028  0.45653857  0.57186094     0.14200
H584        H  0.82677941  0.36818489  0.54628239     0.14700
C585        C  0.92569847  0.31019080  0.35101236    -0.14900
C586        C  0.95348846  0.31757911  0.39504590    -0.30000
H587        H  0.91361814  0.33156671  0.34362954     0.14200
H588        H  0.96758633  0.29765579  0.39978453     0.14700
C589        C  0.96022390  0.13927741  0.36965131    -0.14900
C590        C  0.92096813  0.12633534  0.34923053    -0.30000
H591        H  0.98454678  0.16876496  0.35388169     0.14200
H592        H  0.89572178  0.09745641  0.36476163     0.14700
C593        C  0.63843346  0.23645182  0.59671033    -0.14900
C594        C  0.65297868  0.21335614  0.57037719    -0.30000
H595        H  0.60758100  0.23171304  0.58496935     0.14200
H596        H  0.68462385  0.22000195  0.58178276     0.14700
C597        C  0.76716941  0.14816781  0.34300317    -0.14900
C598        C  0.73915297  0.10827214  0.34924446    -0.30000
H599        H  0.76614110  0.17156712  0.37131964     0.14200
H600        H  0.74180999  0.08492393  0.32282509     0.14700
C601        C  0.71965473  0.60414869  0.39286705     0.04700
C602        C  0.70197220  0.62990709  0.40542101    -0.11500
C603        C  0.66498928  0.61459096  0.43754608     0.02200
C604        C  0.64668284  0.57412416  0.45861944    -0.10000
C605        C  0.66357967  0.54812486  0.44587474     0.04700
C606        C  0.70008807  0.56330634  0.41301240    -0.09400
H607        H  0.71541053  0.66086292  0.38783822     0.10300
H608        H  0.61874802  0.56266516  0.48481928     0.07800
H609        H  0.71267319  0.54295348  0.40165030     0.07700
C610        C  0.64352400  0.69839323  0.49712927     0.04700
C611        C  0.66532348  0.67840950  0.47644006    -0.11500
C612        C  0.64391580  0.63952916  0.44847802     0.02200
C613        C  0.60072500  0.62173342  0.43802720    -0.10000
C614        C  0.57844700  0.64161354  0.45684518     0.04700
C615        C  0.60003401  0.68024358  0.48610543    -0.09400
H616        H  0.69842952  0.69152834  0.48641062     0.10300
H617        H  0.58409709  0.59154549  0.41650360     0.07800
H618        H  0.58279708  0.69526706  0.50193743     0.07700
C619        C  0.96682599  0.60990697  0.40099693     0.04700
C620        C  0.94528088  0.56907807  0.42176331    -0.11500
C621        C  0.96648918  0.55103200  0.45107958     0.02200
C622        C  0.50935407  0.57889593  0.46988817    -0.10000
C623        C  0.53226318  0.61969511  0.44981262     0.04700
C624        C  0.51152497  0.63738476  0.41822565    -0.09400
H625        H  0.91209214  0.55050104  0.41245475     0.10300
H626        H  0.52541685  0.56500472  0.49352907     0.07800
H627        H  0.52982756  0.66799832  0.40037289     0.07700
C628        C  0.98204684  0.86533533  0.40850870     0.04700
C629        C  0.50902394  0.87088573  0.42753606    -0.11500
C630        C  0.52581050  0.90610778  0.46448792     0.02200
C631        C  0.50153145  0.92457775  0.47902477    -0.10000
C632        C  0.97294076  0.92220251  0.44868880     0.04700
C633        C  0.95659867  0.88382364  0.41894045    -0.09400
H634        H  0.52872519  0.85794825  0.41408187     0.10300
H635        H  0.51490212  0.95243771  0.50652408     0.07800
H636        H  0.92444240  0.86901759  0.40327710     0.07700
C637        C  0.88899862  0.94181520  0.51182395     0.04700
C638        C  0.91016160  0.92139060  0.49055482    -0.11500
C639        C  0.94726081  0.94251905  0.45988095     0.02200
C640        C  0.96283434  0.98460128  0.44778991    -0.10000
C641        C  0.94431156  0.50662457  0.46794031     0.04700
C642        C  0.90504188  0.98468801  0.49961432    -0.09400
H643        H  0.89913655  0.88918494  0.50139521     0.10300
H644        H  0.99207296  0.00093802  0.42470900     0.07800
H645        H  0.89184643  0.50857619  0.50686937     0.07700
C646        C  0.63314799  0.94270979  0.53507927     0.04700
C647        C  0.65457602  0.98198133  0.50951007    -0.11500
C648        C  0.64129386  0.50445864  0.46412703     0.02200
C649        C  0.59282445  0.96860784  0.45250454    -0.10000
C650        C  0.57084173  0.92958821  0.47745795     0.04700
C651        C  0.59076814  0.91639144  0.51878314    -0.09400
H652        H  0.69631470  0.50294407  0.49638700     0.10300
H653        H  0.57699574  0.97928433  0.42187078     0.07800
H654        H  0.57242500  0.88689979  0.53972528     0.07700
O655        O  0.78703861  0.85203146  0.76088674    -0.83800
O656        O  0.71504767  0.77842817  0.74557734    -0.80800
C657        C  0.69349372  0.77592112  0.79071320     0.99700
O658        O  0.67965571  0.80108476  0.79746043    -0.80900
O659        O  0.66684963  0.86911175  0.77843930    -0.83500
C660        C  0.69588871  0.90038781  0.80481401     1.04200
O661        O  0.73294080  0.91381175  0.78994271    -0.76300
O662        O  0.80113388  0.91616615  0.74272034    -0.76500
C663        C  0.80850847  0.89039773  0.77035400     1.04200
O664        O  0.79140072  0.87042480  0.63775772    -0.83800
O665        O  0.71254699  0.79972541  0.62206672    -0.80800
C666        C  0.67424899  0.77467174  0.62875624     0.99700
O667        O  0.65632677  0.77579368  0.67573983    -0.80900
O668        O  0.65212493  0.84586707  0.65619261    -0.83500
C669        C  0.66530050  0.88346479  0.64556064     1.04200
O670        O  0.69728327  0.91156246  0.67263089    -0.76300
O671        O  0.76512316  0.91187666  0.62506516    -0.76400
C672        C  0.79085546  0.90028716  0.61071179     1.04100
Cr673      Cr  0.74935237  0.82709047  0.69231063     1.93700
Cr674      Cr  0.66803318  0.82534052  0.72622617     1.93200
Cr675      Cr  0.74705740  0.90892960  0.70764783     1.39100
O676        O  0.72169452  0.85404055  0.70902090    -1.21500
C677        C  0.95617069  0.59875633  0.01868950     0.04700
C678        C  0.51060007  0.62717136  0.00307530    -0.11500
C679        C  0.53204842  0.61015577  0.97158986     0.02200
C680        C  0.51023915  0.56827240  0.95411401    -0.10000
C681        C  0.95541435  0.54027500  0.96546076     0.04700
C682        C  0.93516641  0.55678874  0.00008914    -0.09400
H683        H  0.52751407  0.65936880  0.01669353     0.10300
H684        H  0.52630805  0.55470822  0.93020084     0.07800
H685        H  0.90372568  0.53652077  0.01470466     0.07700
C686        C  0.88891350  0.95289164  0.89358280     0.04700
C687        C  0.90697488  0.99396983  0.91503398    -0.11500
C688        C  0.93665340  0.49521876  0.95306443     0.02200
C689        C  0.95576145  0.98310039  0.97577362    -0.10000
C690        C  0.93792974  0.94215914  0.95554154     0.04700
C691        C  0.90402353  0.92670856  0.91565275    -0.09400
H692        H  0.89016312  0.49240377  0.89235038     0.10300
H693        H  0.98268452  0.99524508  0.00575289     0.07800
H694        H  0.89124569  0.89496911  0.90069349     0.07700
C695        C  0.96893111  0.86441676  0.01443587     0.04700
C696        C  0.94377759  0.88259986  0.99966321    -0.11500
C697        C  0.96067985  0.91922768  0.96700968     0.02200
C698        C  0.50596268  0.93669758  0.94844253    -0.10000
C699        C  0.53093493  0.91846317  0.96054200     0.04700
C700        C  0.51370369  0.87995754  0.98790048    -0.09400
H701        H  0.91238931  0.87018416  0.01596602     0.10300
H702        H  0.51923533  0.96634761  0.92654302     0.07800
H703        H  0.53346766  0.86639984  0.99869107     0.07700
C704        C  0.63372872  0.93880063  0.89729946     0.04700
C705        C  0.59237817  0.91847818  0.91576168    -0.11500
C706        C  0.57519737  0.93997695  0.94474717     0.02200
C707        C  0.59967604  0.98232956  0.95617365    -0.10000
C708        C  0.64995760  0.50248305  0.94835181     0.04700
C709        C  0.65852079  0.98183528  0.90870849    -0.09400
H710        H  0.57283403  0.88578805  0.90564621     0.10300
H711        H  0.58631217  0.99866256  0.97989392     0.07800
H712        H  0.70082739  0.49826079  0.90814721     0.07700
C713        C  0.72948795  0.60859742  0.00206342     0.04700
C714        C  0.71172607  0.56738387  0.98299279    -0.11500
C715        C  0.67226374  0.54797302  0.95560418     0.02200
C716        C  0.65172935  0.57103338  0.94332265    -0.10000
C717        C  0.66953236  0.61291800  0.96039200     0.04700
C718        C  0.70874185  0.63172336  0.98971648    -0.09400
H719        H  0.72685935  0.54927518  0.99471561     0.10300
H720        H  0.62110633  0.55592135  0.92194585     0.07800
H721        H  0.72213123  0.66355698  0.00509497     0.07700
C722        C  0.63643782  0.69165861  0.90936698     0.04700
C723        C  0.59475635  0.67241644  0.92904015    -0.11500
C724        C  0.57763512  0.63431097  0.95859305     0.02200
C725        C  0.60326922  0.61635994  0.97015009    -0.10000
C726        C  0.64493163  0.63511114  0.95196526     0.04700
C727        C  0.66154277  0.67307092  0.92242457    -0.09400
H728        H  0.57493388  0.68589410  0.91836756     0.10300
H729        H  0.59041356  0.58700567  0.99276095     0.07800
H730        H  0.69365371  0.68732465  0.90857638     0.07700
O731        O  0.87017392  0.74918480  0.13048094    -0.83800
O732        O  0.80359239  0.68114759  0.17745530    -0.80800
C733        C  0.80182268  0.65656982  0.13744170     0.99700
O734        O  0.82796371  0.64341942  0.13752640    -0.80900
O735        O  0.90278485  0.64280023  0.15500008    -0.83500
C736        C  0.92932831  0.66833311  0.11983461     1.04200
O737        O  0.94255458  0.70669650  0.12628819    -0.76300
O738        O  0.93731889  0.77680133  0.15141445    -0.76500
C739        C  0.90748676  0.77459253  0.11918656     1.04200
O740        O  0.89863157  0.78097871  0.24621710    -0.83800
O741        O  0.83854080  0.70796264  0.29229254    -0.80800
C742        C  0.81625784  0.66978875  0.30078866     0.99700
O743        O  0.81788194  0.64324189  0.26609748    -0.80900
O744        O  0.89615815  0.64898454  0.28145249    -0.83500
C745        C  0.93570609  0.66817942  0.28412674     1.04200
O746        O  0.95633296  0.69740495  0.24913837    -0.76300
O747        O  0.94538961  0.76449937  0.27729641    -0.76400
C748        C  0.92801676  0.78679082  0.28123830     1.04100
Cr749      Cr  0.85528664  0.72779433  0.21138686     1.93700
Cr750      Cr  0.86279413  0.64857333  0.20988809     1.93200
Cr751      Cr  0.94128326  0.73405964  0.20168024     1.39100
O752        O  0.88671509  0.70325482  0.20779193    -1.21500
C753        C  0.76670033  0.62435880  0.04175880    -0.14900
C754        C  0.76810704  0.64379712  0.09265266    -0.30000
H755        H  0.79040916  0.61538376  0.03302619     0.14200
H756        H  0.74329420  0.65107503  0.10220861     0.14500
C757        C  0.95586623  0.82959303  0.05576147    -0.14900
C758        C  0.91633205  0.80414012  0.07088524    -0.30000
H759        H  0.98069590  0.82549803  0.07634436     0.14200
H760        H  0.89041292  0.80573100  0.04942331     0.14700
C761        C  0.93520774  0.61366877  0.06148794    -0.14900
C762        C  0.94714679  0.65397984  0.07209760    -0.30000
H763        H  0.90927790  0.59036328  0.08610003     0.14200
H764        H  0.97158672  0.67770713  0.04607818     0.14700
C765        C  0.68255792  0.74137266  0.83271213    -0.14900
C766        C  0.65196702  0.72999526  0.87294515    -0.30000
H767        H  0.69775042  0.72267634  0.82626928     0.14200
H768        H  0.63518464  0.74751152  0.87572284     0.14700
C769        C  0.84301930  0.90451874  0.81380059    -0.14900
C770        C  0.85577946  0.93924453  0.84658724    -0.30000
H771        H  0.85616573  0.88409338  0.82051199     0.14200
H772        H  0.84148655  0.95868576  0.83827358     0.14700
C773        C  0.68651308  0.92392125  0.84956598    -0.14900
C774        C  0.64694970  0.91391103  0.86062355    -0.30000
H775        H  0.71220587  0.95121847  0.87001713     0.14200
H776        H  0.62214723  0.88574320  0.84036753     0.14700
C777        C  0.65550391  0.93206261  0.58140904    -0.14900
C778        C  0.64195638  0.89358974  0.60116509    -0.30000
H779        H  0.68495353  0.95679208  0.59890100     0.14200
H780        H  0.61385108  0.86785949  0.58255317     0.14700
C781        C  0.85422548  0.91748033  0.55324778    -0.14900
C782        C  0.82215990  0.92429234  0.56498397    -0.30000
H783        H  0.85499215  0.89164479  0.57514028     0.14200
H784        H  0.81989834  0.94928684  0.54303305     0.14700
C785        C  0.94151283  0.82116852  0.32404903    -0.14900
C786        C  0.96815991  0.82826956  0.36953536    -0.30000
H787        H  0.92872329  0.84193915  0.31665708     0.14200
H788        H  0.98243701  0.80857681  0.37522220     0.14700
C789        C  0.94244015  0.62519186  0.36468589    -0.14900
C790        C  0.95985381  0.65660547  0.32633584    -0.30000
H791        H  0.90857183  0.60769418  0.36596130     0.14200
H792        H  0.99352163  0.67356580  0.32265388     0.14700
C793        C  0.64978973  0.74221530  0.58400960    -0.14900
C794        C  0.66664584  0.73588753  0.53519633    -0.30000
H795        H  0.61741149  0.72104776  0.59396471     0.14200
H796        H  0.69972220  0.75559954  0.52746439     0.14700
C797        C  0.78523291  0.65678684  0.34793895    -0.14900
C798        C  0.75572691  0.61721501  0.35344847    -0.30000
H799        H  0.78482755  0.68076318  0.37566446     0.14200
H800        H  0.75739857  0.59334657  0.32695845     0.14700
loop_ 
_geom_bond_atom_site_label_1 
_geom_bond_atom_site_label_2 
_geom_bond_distance 
_geom_bond_site_symmetry_2 
_ccdc_geom_bond_type 
C1            C2   1.419       .  A
C1            C6   1.398       .  A
C1          C198   1.479       .  S
C2            C3   1.409       .  A
C2            H7   1.083       .  S
C3            C4   1.391       .  A
C3           C12   1.477       .  S
C4            C5   1.392       .  A
C4            H8   1.086       .  S
C5            C6   1.393       .  A
C5           C48   1.455       .  S
C6            H9   1.085       .  S
C10          C11   1.405       .  A
C10          C15   1.420       .  A
C10         C194   1.494       .  S
C11          C12   1.397       .  A
C11          H16   1.085       .  S
C12          C13   1.406       .  A
C13          C14   1.402       .  A
C13          H17   1.084       .  S
C14          C15   1.409       .  A
C14          C23   1.491       .  S
C15          H18   1.080       .  S
C19          C20   1.412       .  A
C19         C424   1.421       .  A
C19         C189   1.502       .  S
C20          C21   1.405       .  A
C20          H25   1.084       .  S
C21         C422   1.405       .  A
C21          C41   1.491   1_545  S
C22          C23   1.404       .  A
C22         C421   1.412   1_455  A
C22          H26   1.084       .  S
C23          C24   1.400       .  A
C24         C419   1.410   1_455  A
C24          H27   1.084       .  S
C28          C33   1.415       .  A
C28         C429   1.404       .  A
C28         C186   1.486       .  S
C29          C30   1.399       .  A
C29         C428   1.400   1_455  A
C29          H34   1.084       .  S
C30          C31   1.401       .  A
C30          C50   1.477       .  S
C31         C432   1.402   1_455  A
C31          H35   1.084       .  S
C32          C33   1.408       .  A
C32         C431   1.402       .  A
C32          C39   1.483       .  S
C33          H36   1.081       .  S
C37          C38   1.414       .  A
C37          C42   1.412       .  A
C37         C181   1.493       .  S
C38          C39   1.404       .  A
C38          H43   1.081       .  S
C39          C40   1.403       .  A
C40         C241   1.400       .  A
C40          H44   1.084       .  S
C41         C240   1.405       .  A
C41         C242   1.413       .  A
C42         C241   1.405       .  A
C42         H245   1.084       .  S
H45         C242   1.082       .  S
C46          C47   1.402       .  A
C46          C51   1.408       .  A
C46         C177   1.479       .  S
C47         C248   1.402       .  A
C47         H252   1.084       .  S
C48         C247   1.394   1_545  A
C48         C249   1.393   1_545  A
C49          C50   1.399       .  A
C49         C248   1.400       .  A
C49          H53   1.084       .  S
C50          C51   1.400       .  A
C51          H54   1.082       .  S
H52         C247   1.084   1_545  S
O55         Cr73   2.030       .  S
O55          C63   1.277       .  A
O56         Cr73   1.987       .  S
O56          C57   1.257       .  A
C57         C165   1.488       .  S
C57          O58   1.262       .  A
O58         Cr74   2.004       .  S
O59         Cr74   1.989       .  S
O59          C60   1.262       .  A
C60         C173   1.470       .  S
C60          O61   1.260       .  A
O61         Cr75   1.994       .  S
O62         Cr75   1.953       .  S
O62          C63   1.258       .  A
C63         C169   1.473       .  S
O64         Cr73   1.989       .  S
O64          C72   1.256       .  A
O65         Cr73   2.024       .  S
O65          C66   1.274       .  A
C66         C193   1.479       .  S
C66          O67   1.258       .  A
O67         Cr74   1.961       .  S
O68         Cr74   2.005       .  S
O68          C69   1.266       .  A
C69         C178   1.466       .  S
C69          O70   1.263       .  A
O70         Cr75   1.974       .  S
O71         Cr75   1.997       .  S
O71          C72   1.258       .  A
C72         C182   1.483       .  S
Cr73         O76   1.775       .  S
Cr74         O76   1.776       .  S
Cr75         O76   1.777       .  S
C77          C82   1.408       .  A
C77         C478   1.422       .  A
C77         C161   1.499       .  S
C78          C79   1.416   1_554  A
C78         C477   1.423   1_455  A
C78          H83   1.081       .  S
C79          C80   1.402       .  A
C79         C124   1.493       .  S
C80         C481   1.398   1_455  A
C80          H84   1.085       .  S
C81          C82   1.400   1_556  A
C81         C480   1.399       .  A
C81          C88   1.479       .  S
C82          H85   1.084       .  S
C86          C87   1.419       .  A
C86          C91   1.403       .  A
C86         C170   1.489       .  S
C87         C288   1.405       .  A
C87         H292   1.080       .  S
C88         C287   1.402   1_545  A
C88         C289   1.398   1_545  A
C89          C90   1.399       .  A
C89         C288   1.398       .  A
C89          H93   1.085   1_556  S
C90          C91   1.396       .  A
C90          C97   1.470       .  S
C91          H94   1.084       .  S
H92         C287   1.084   1_545  S
C95          C96   1.411       .  A
C95         C500   1.398       .  A
C95         C157   1.474       .  S
C96          C97   1.399   1_554  A
C96         H101   1.083       .  S
C97         C498   1.393       .  A
C98          C99   1.399       .  A
C98         C497   1.397   1_455  A
C98         H102   1.085       .  S
C99         C100   1.397   1_556  A
C99         C106   1.470       .  S
C100        C495   1.401   1_455  A
C100        H103   1.085       .  S
C104        C105   1.401       .  A
C104        C109   1.415       .  A
C104        C174   1.482       .  S
C105        C106   1.397       .  A
C105        H110   1.084       .  S
C106        C107   1.396       .  A
C107        C308   1.400       .  A
C107        H111   1.084       .  S
C108        C307   1.400   1_545  A
C108        C309   1.414   1_545  A
C108        C115   1.485       .  S
C109        C308   1.407       .  A
C109        H312   1.082       .  S
H112        C309   1.083       .  S
C113        C114   1.406   1_554  A
C113        C118   1.418       .  A
C113        C153   1.491       .  S
C114        C115   1.401       .  A
C114        H119   1.084   1_556  S
C115        C116   1.407       .  A
C116        C117   1.404       .  A
C116        H120   1.084       .  S
C117        C118   1.408   1_556  A
C117        C126   1.493       .  S
C118        H121   1.082       .  S
C122        C123   1.413       .  A
C122        C127   1.418       .  A
C122        C166   1.499       .  S
C123        C124   1.404       .  A
C123        H128   1.084       .  S
C124        C125   1.407       .  A
C125        C126   1.406       .  A
C125        H129   1.084   1_556  S
C126        C127   1.408       .  A
C127        H130   1.081       .  S
O131       Cr149   1.980       .  S
O131        C139   1.255       .  A
O132       Cr149   1.968       .  S
O132        C133   1.259       .  A
C133        C154   1.481       .  S
C133        O134   1.276       .  A
O134       Cr150   2.038       .  S
O135       Cr150   2.004       .  S
O135        C136   1.267       .  A
C136        C162   1.490       .  S
C136        O137   1.264       .  A
O137       Cr151   2.004       .  S
O138       Cr151   1.986       .  S
O138        C139   1.259       .  A
C139        C158   1.460       .  S
O140       Cr149   1.976       .  S
O140        C148   1.260       .  A
O141       Cr149   1.978       .  S
O141        C142   1.254       .  A
C142        C197   1.469       .  S
C142        O143   1.265       .  A
O143       Cr150   2.007       .  S
O144       Cr150   2.033       .  S
O144        C145   1.272       .  A
C145        C190   1.492       .  S
C145        O146   1.260       .  A
O146       Cr151   1.979       .  S
O147       Cr151   2.012       .  S
O147        C148   1.272       .  A
C148        C185   1.478       .  S
Cr149       O152   1.777       .  S
Cr150       O152   1.770       .  S
Cr151       O152   1.766       .  S
C153        C154   1.343       .  D
C153        H155   1.087       .  S
C154        H156   1.086       .  S
C157        C158   1.336       .  D
C157        H159   1.087       .  S
C158        H160   1.086       .  S
C161        C162   1.347       .  D
C161        H163   1.087       .  S
C162        H164   1.085       .  S
C165        C166   1.351       .  D
C165        H167   1.084       .  S
C166        H168   1.087       .  S
C169        C170   1.339       .  D
C169        H171   1.083       .  S
C170        H172   1.087       .  S
C173        C174   1.339       .  D
C173        H175   1.086       .  S
C174        H176   1.087       .  S
C177        C178   1.341       .  D
C177        H179   1.087       .  S
C178        H180   1.085       .  S
C181        C182   1.350       .  D
C181        H183   1.087       .  S
C182        H184   1.084       .  S
C185        C186   1.343       .  D
C185        H187   1.084       .  S
C186        H188   1.088       .  S
C189        C190   1.349       .  D
C189        H191   1.087       .  S
C190        H192   1.085       .  S
C193        C194   1.342       .  D
C193        H195   1.083       .  S
C194        H196   1.088       .  S
C197        C198   1.335       .  D
C197        H199   1.087       .  S
C198        H200   1.087       .  S
C201        C202   1.420       .  A
C201        C206   1.399       .  A
C201        C398   1.490       .  S
C202        C203   1.412       .  A
C202        H207   1.083       .  S
C203        C204   1.400       .  A
C203        C212   1.492       .  S
C204        C205   1.402       .  A
C204        H208   1.084       .  S
C205        C206   1.400       .  A
C205        C248   1.478       .  S
C206        H209   1.084       .  S
C210        C211   1.408       .  A
C210        C215   1.416       .  A
C210        C394   1.492       .  S
C211        C212   1.402       .  A
C211        H216   1.084       .  S
C212        C213   1.409       .  A
C213        C214   1.409       .  A
C213        H217   1.084       .  S
C214        C215   1.409       .  A
C214        C223   1.496       .  S
C215        H218   1.083       .  S
C219        C220   1.409       .  A
C219        C624   1.413       .  A
C219        C389   1.489       .  S
C220        C221   1.401       .  A
C220        H225   1.084       .  S
C221        C622   1.403       .  A
C221        C241   1.487       .  S
C222        C621   1.405   1_455  A
C222        C223   1.404       .  A
C222        H226   1.084       .  S
C223        C224   1.412       .  A
C224        C619   1.421   1_455  A
C224        H227   1.081       .  S
C228        C629   1.409       .  A
C228        C233   1.409       .  A
C228        C386   1.484       .  S
C229        C628   1.400   1_455  A
C229        C230   1.397       .  A
C229        H234   1.084       .  S
C230        C231   1.399       .  A
C230        C250   1.464       .  S
C231        C632   1.396   1_455  A
C231        H235   1.085       .  S
C232        C631   1.393       .  A
C232        C233   1.401       .  A
C232        C239   1.468       .  S
C233        H236   1.081       .  S
C237        C238   1.397       .  A
C237        C242   1.420       .  A
C237        C381   1.483       .  S
C238        C239   1.389       .  A
C238        H243   1.085       .  S
C239        C240   1.400       .  A
C240        H244   1.085       .  S
C246        C247   1.399       .  A
C246        C251   1.412       .  A
C246        C377   1.474       .  S
C249        C250   1.391       .  A
C249        H253   1.085       .  S
C250        C251   1.397       .  A
C251        H254   1.081       .  S
O255       Cr273   1.969       .  S
O255        C263   1.258       .  A
O256       Cr273   2.017       .  S
O256        C257   1.270       .  A
C257        C365   1.470       .  S
C257        O258   1.261       .  A
O258       Cr274   1.967       .  S
O259       Cr274   2.018       .  S
O259        C260   1.268       .  A
C260        C373   1.475       .  S
C260        O261   1.250       .  A
O261       Cr275   1.964       .  S
O262       Cr275   2.012       .  S
O262        C263   1.269       .  A
C263        C369   1.475       .  S
O264       Cr273   2.020       .  S
O264        C272   1.270       .  A
O265       Cr273   1.990       .  S
O265        C266   1.263       .  A
C266        C393   1.484       .  S
C266        O267   1.266       .  A
O267       Cr274   2.016       .  S
O268       Cr274   1.948       .  S
O268        C269   1.254       .  A
C269        C378   1.458       .  S
C269        O270   1.270       .  A
O270       Cr275   2.013       .  S
O271       Cr275   1.960       .  S
O271        C272   1.251       .  A
C272        C382   1.476       .  S
Cr273       O276   1.764       .  S
Cr274       O276   1.768       .  S
Cr275       O276   1.771       .  S
C277        C678   1.423       .  A
C277        C282   1.409   1_554  A
C277        C361   1.502       .  S
C278        C677   1.416       .  A
C278        C279   1.407   1_654  A
C278        H283   1.081   1_655  S
C279        C280   1.401   1_455  A
C279        C324   1.486       .  S
C280        C681   1.399       .  A
C280        H284   1.085   1_655  S
C281        C680   1.400       .  A
C281        C282   1.400       .  A
C281        C288   1.482       .  S
C282        H285   1.084   1_556  S
C286        C287   1.410       .  A
C286        C291   1.415       .  A
C286        C370   1.492       .  S
C289        C290   1.400       .  A
C289        H293   1.085   1_556  S
C290        C291   1.401       .  A
C290        C297   1.478       .  S
C291        H294   1.079       .  S
C295        C296   1.417   1_554  A
C295        C700   1.398   1_554  A
C295        C357   1.484       .  S
C296        C297   1.406       .  A
C296        H301   1.082   1_556  S
C297        C698   1.397       .  A
C298        C697   1.394   1_455  A
C298        C299   1.389       .  A
C298        H302   1.085       .  S
C299        C300   1.395       .  A
C299        C306   1.462       .  S
C300        C695   1.402   1_456  A
C300        H303   1.085   1_556  S
C304        C305   1.395       .  A
C304        C309   1.416       .  A
C304        C374   1.475       .  S
C305        C306   1.389       .  A
C305        H310   1.085       .  S
C306        C307   1.396       .  A
C307        H311   1.085       .  S
C308        C315   1.486       .  S
C313        C314   1.414       .  A
C313        C318   1.404       .  A
C313        C353   1.489   1_556  S
C314        C315   1.404       .  A
C314        H319   1.081       .  S
C315        C316   1.404       .  A
C316        C317   1.399       .  A
C316        H320   1.084       .  S
C317        C318   1.402       .  A
C317        C326   1.484       .  S
C318        H321   1.084       .  S
C322        C323   1.408       .  A
C322        C327   1.407       .  A
C322        C366   1.485       .  S
C323        C324   1.405       .  A
C323        H328   1.084       .  S
C324        C325   1.405       .  A
C325        C326   1.404       .  A
C325        H329   1.084       .  S
C326        C327   1.398       .  A
C327        H330   1.082       .  S
O331       Cr349   1.974       .  S
O331        C339   1.251       .  A
O332       Cr349   1.986       .  S
O332        C333   1.269       .  A
C333        C354   1.472       .  S
C333        O334   1.268       .  A
O334       Cr350   2.001       .  S
O335       Cr350   2.009       .  S
O335        C336   1.268       .  A
C336        C362   1.489       .  S
C336        O337   1.263       .  A
O337       Cr351   1.994       .  S
O338       Cr351   2.002       .  S
O338        C339   1.262       .  A
C339        C358   1.470       .  S
O340       Cr349   1.984       .  S
O340        C348   1.265       .  A
O341       Cr349   1.967       .  S
O341        C342   1.249       .  A
C342        C397   1.477       .  S
C342        O343   1.266       .  A
O343       Cr350   2.028       .  S
O344       Cr350   1.987       .  S
O344        C345   1.262       .  A
C345        C390   1.481       .  S
C345        O346   1.260       .  A
O346       Cr351   1.988       .  S
O347       Cr351   2.000       .  S
O347        C348   1.269       .  A
C348        C385   1.474       .  S
Cr349       O352   1.779       .  S
Cr350       O352   1.775       .  S
Cr351       O352   1.777       .  S
C353        C354   1.342       .  D
C353        H355   1.087       .  S
C354        H356   1.084       .  S
C357        C358   1.335       .  D
C357        H359   1.087       .  S
C358        H360   1.085       .  S
C361        C362   1.347       .  D
C361        H363   1.087       .  S
C362        H364   1.084       .  S
C365        C366   1.348       .  D
C365        H367   1.085       .  S
C366        H368   1.087       .  S
C369        C370   1.346       .  D
C369        H371   1.082       .  S
C370        H372   1.087       .  S
C373        C374   1.336       .  D
C373        H375   1.086       .  S
C374        H376   1.088       .  S
C377        C378   1.336       .  D
C377        H379   1.087       .  S
C378        H380   1.084       .  S
C381        C382   1.336       .  D
C381        H383   1.088       .  S
C382        H384   1.085       .  S
C385        C386   1.348       .  D
C385        H387   1.084       .  S
C386        H388   1.087       .  S
C389        C390   1.349       .  D
C389        H391   1.087       .  S
C390        H392   1.084       .  S
C393        C394   1.347       .  D
C393        H395   1.086       .  S
C394        H396   1.087       .  S
C397        C398   1.336       .  D
C397        H399   1.087       .  S
C398        H400   1.087       .  S
C401        C402   1.416       .  A
C401        C406   1.400       .  A
C401        C598   1.479       .  S
C402        C403   1.405       .  A
C402        H407   1.082       .  S
C403        C404   1.396       .  A
C403        C412   1.477       .  S
C404        C405   1.397       .  A
C404        H408   1.085       .  S
C405        C406   1.394       .  A
C405        C448   1.462   1_545  S
C406        H409   1.084       .  S
C410        C411   1.406       .  A
C410        C415   1.425       .  A
C410        C594   1.501       .  S
C411        C412   1.397       .  A
C411        H416   1.085       .  S
C412        C413   1.400       .  A
C413        C414   1.403       .  A
C413        H417   1.085       .  S
C414        C415   1.414       .  A
C414        C423   1.494       .  S
C415        H418   1.080       .  S
C419        C420   1.426       .  A
C419        C589   1.506       .  S
C420        C421   1.417       .  A
C420        H425   1.081       .  S
C421        C441   1.505       .  S
C422        C423   1.405       .  A
C422        H426   1.085       .  S
C423        C424   1.412       .  A
C424        H427   1.082       .  S
C428        C433   1.412       .  A
C428        C586   1.480       .  S
C429        C430   1.395       .  A
C429        H434   1.084       .  S
C430        C431   1.398       .  A
C430        C450   1.477       .  S
C431        H435   1.085       .  S
C432        C433   1.403       .  A
C432        C439   1.484       .  S
C433        H436   1.083       .  S
C437        C438   1.412       .  A
C437        C442   1.411       .  A
C437        C581   1.491       .  S
C438        C439   1.404       .  A
C438        H443   1.081       .  S
C439        C440   1.403       .  A
C440        C641   1.401       .  A
C440        H444   1.084       .  S
C441        C640   1.407   1_545  A
C441        C642   1.423   1_545  A
C442        C641   1.406       .  A
C442        H645   1.084       .  S
H445        C642   1.082   1_545  S
C446        C447   1.403       .  A
C446        C451   1.410       .  A
C446        C577   1.483       .  S
C447        C648   1.402       .  A
C447        H652   1.084       .  S
C448        C647   1.397       .  A
C448        C649   1.390       .  A
C449        C648   1.400       .  A
C449        C450   1.397       .  A
C449        H453   1.084       .  S
C450        C451   1.401       .  A
C451        H454   1.082       .  S
H452        C647   1.084   1_545  S
O455       Cr473   2.042       .  S
O455        C463   1.278       .  A
O456       Cr473   1.983       .  S
O456        C457   1.255       .  A
C457        C565   1.483       .  S
C457        O458   1.260       .  A
O458       Cr474   2.001       .  S
O459       Cr474   1.982       .  S
O459        C460   1.261       .  A
C460        C573   1.461       .  S
C460        O461   1.258       .  A
O461       Cr475   1.988       .  S
O462       Cr475   1.953       .  S
O462        C463   1.258       .  A
C463        C569   1.480       .  S
O464       Cr473   1.989       .  S
O464        C472   1.257       .  A
O465       Cr473   2.043       .  S
O465        C466   1.279       .  A
C466        C593   1.486       .  S
C466        O467   1.259       .  A
O467       Cr474   1.959       .  S
O468       Cr474   2.003       .  S
O468        C469   1.266       .  A
C469        C578   1.467       .  S
C469        O470   1.263       .  A
O470       Cr475   1.979       .  S
O471       Cr475   1.989       .  S
O471        C472   1.258       .  A
C472        C582   1.482       .  S
Cr473       O476   1.774       .  S
Cr474       O476   1.775       .  S
Cr475       O476   1.778       .  S
C477        C482   1.402       .  A
C477        C561   1.493       .  S
C478        C479   1.416   1_554  A
C478        H483   1.082       .  S
C479        C480   1.401       .  A
C479        C524   1.495       .  S
C480        H484   1.085       .  S
C481        C482   1.393   1_556  A
C481        C488   1.469       .  S
C482        H485   1.085       .  S
C486        C487   1.422       .  A
C486        C491   1.409       .  A
C486        C570   1.501       .  S
C487        C688   1.405       .  A
C487        H692   1.079       .  S
C488        C687   1.402   1_545  A
C488        C689   1.393   1_545  A
C489        C688   1.398       .  A
C489        C490   1.398       .  A
C489        H493   1.085   1_556  S
C490        C491   1.402       .  A
C490        C497   1.475       .  S
C491        H494   1.084       .  S
H492        C687   1.084   1_545  S
C495        C496   1.415       .  A
C495        C557   1.481       .  S
C496        C497   1.402   1_554  A
C496        H501   1.082       .  S
C498        C499   1.397       .  A
C498        H502   1.085       .  S
C499        C500   1.399   1_556  A
C499        C506   1.468       .  S
C500        H503   1.084       .  S
C504        C505   1.396       .  A
C504        C509   1.409       .  A
C504        C574   1.472       .  S
C505        C506   1.396       .  A
C505        H510   1.084       .  S
C506        C507   1.399       .  A
C507        C708   1.396       .  A
C507        H511   1.084       .  S
C508        C707   1.401   1_545  A
C508        C709   1.412   1_545  A
C508        C515   1.485       .  S
C509        C708   1.403       .  A
C509        H712   1.083       .  S
H512        C709   1.082       .  S
C513        C514   1.406   1_554  A
C513        C518   1.418   1_554  A
C513        C553   1.493       .  S
C514        C515   1.402       .  A
C514        H519   1.084       .  S
C515        C516   1.408       .  A
C516        C517   1.402       .  A
C516        H520   1.084       .  S
C517        C518   1.406       .  A
C517        C526   1.492       .  S
C518        H521   1.082   1_556  S
C522        C523   1.412       .  A
C522        C527   1.415       .  A
C522        C566   1.495       .  S
C523        C524   1.404       .  A
C523        H528   1.084       .  S
C524        C525   1.409       .  A
C525        C526   1.407       .  A
C525        H529   1.084       .  S
C526        C527   1.405       .  A
C527        H530   1.081       .  S
O531       Cr549   1.950       .  S
O531        C539   1.258       .  A
O532       Cr549   1.987       .  S
O532        C533   1.254       .  A
C533        C554   1.478       .  S
C533        O534   1.260       .  A
O534       Cr550   2.008       .  S
O535       Cr550   2.026       .  S
O535        C536   1.272       .  A
C536        C562   1.484       .  S
C536        O537   1.255       .  A
O537       Cr551   1.963       .  S
O538       Cr551   2.037       .  S
O538        C539   1.279       .  A
C539        C558   1.468       .  S
O540       Cr549   1.985       .  S
O540        C548   1.254       .  A
O541       Cr549   1.951       .  S
O541        C542   1.259       .  A
C542        C597   1.469       .  S
C542        O543   1.280       .  A
O543       Cr550   2.038       .  S
O544       Cr550   1.980       .  S
O544        C545   1.259       .  A
C545        C590   1.496       .  S
C545        O546   1.272       .  A
O546       Cr551   2.031       .  S
O547       Cr551   1.992       .  S
O547        C548   1.258       .  A
C548        C585   1.468       .  S
Cr549       O552   1.772       .  S
Cr550       O552   1.770       .  S
Cr551       O552   1.772       .  S
C553        C554   1.343       .  D
C553        H555   1.087       .  S
C554        H556   1.085       .  S
C557        C558   1.337       .  D
C557        H559   1.087       .  S
C558        H560   1.086       .  S
C561        C562   1.340       .  D
C561        H563   1.088       .  S
C562        H564   1.085       .  S
C565        C566   1.349       .  D
C565        H567   1.084       .  S
C566        H568   1.087       .  S
C569        C570   1.344       .  D
C569        H571   1.082       .  S
C570        H572   1.087       .  S
C573        C574   1.336       .  D
C573        H575   1.086       .  S
C574        H576   1.087       .  S
C577        C578   1.341       .  D
C577        H579   1.087       .  S
C578        H580   1.085       .  S
C581        C582   1.351       .  D
C581        H583   1.087       .  S
C582        H584   1.084       .  S
C585        C586   1.339       .  D
C585        H587   1.086       .  S
C586        H588   1.087       .  S
C589        C590   1.348       .  D
C589        H591   1.087       .  S
C590        H592   1.084       .  S
C593        C594   1.342       .  D
C593        H595   1.083       .  S
C594        H596   1.087       .  S
C597        C598   1.337       .  D
C597        H599   1.086       .  S
C598        H600   1.087       .  S
C601        C602   1.413       .  A
C601        C606   1.402       .  A
C601        C798   1.480       .  S
C602        C603   1.404       .  A
C602        H607   1.083       .  S
C603        C604   1.398       .  A
C603        C612   1.479       .  S
C604        C605   1.399       .  A
C604        H608   1.084       .  S
C605        C606   1.400       .  A
C605        C648   1.476       .  S
C606        H609   1.084       .  S
C610        C611   1.404       .  A
C610        C615   1.414       .  A
C610        C794   1.483       .  S
C611        C612   1.399       .  A
C611        H616   1.084       .  S
C612        C613   1.403       .  A
C613        C614   1.401       .  A
C613        H617   1.085       .  S
C614        C615   1.406       .  A
C614        C623   1.485       .  S
C615        H618   1.083       .  S
C619        C620   1.408       .  A
C619        C789   1.501       .  S
C620        C621   1.403       .  A
C620        H625   1.084       .  S
C621        C641   1.490       .  S
C622        C623   1.405       .  A
C622        H626   1.084       .  S
C623        C624   1.405       .  A
C624        H627   1.081       .  S
C628        C633   1.415       .  A
C628        C786   1.484       .  S
C629        C630   1.400       .  A
C629        H634   1.084       .  S
C630        C631   1.396       .  A
C630        C650   1.468       .  S
C631        H635   1.085       .  S
C632        C633   1.404       .  A
C632        C639   1.480       .  S
C633        H636   1.082       .  S
C637        C638   1.402       .  A
C637        C642   1.426       .  A
C637        C781   1.497       .  S
C638        C639   1.393       .  A
C638        H643   1.085       .  S
C639        C640   1.401       .  A
C640        H644   1.084   1_565  S
C646        C647   1.404       .  A
C646        C651   1.417       .  A
C646        C777   1.484       .  S
C649        C650   1.393       .  A
C649        H653   1.086       .  S
C650        C651   1.401       .  A
C651        H654   1.081       .  S
O655       Cr673   1.958       .  S
O655        C663   1.258       .  A
O656       Cr673   2.034       .  S
O656        C657   1.273       .  A
C657        C765   1.488       .  S
C657        O658   1.263       .  A
O658       Cr674   1.981       .  S
O659       Cr674   2.010       .  S
O659        C660   1.266       .  A
C660        C773   1.475       .  S
C660        O661   1.250       .  A
O661       Cr675   1.964       .  S
O662       Cr675   2.012       .  S
O662        C663   1.270       .  A
C663        C769   1.465       .  S
O664       Cr673   2.035       .  S
O664        C672   1.270       .  A
O665       Cr673   1.986       .  S
O665        C666   1.264       .  A
C666        C793   1.475       .  S
C666        O667   1.265       .  A
O667       Cr674   2.006       .  S
O668       Cr674   1.954       .  S
O668        C669   1.255       .  A
C669        C778   1.469       .  S
C669        O670   1.271       .  A
O670       Cr675   2.019       .  S
O671       Cr675   1.971       .  S
O671        C672   1.252       .  A
C672        C782   1.492       .  S
Cr673       O676   1.769       .  S
Cr674       O676   1.774       .  S
Cr675       O676   1.774       .  S
C677        C682   1.413       .  A
C677        C761   1.498       .  S
C678        C679   1.414   1_554  A
C678        H683   1.081       .  S
C679        C680   1.404       .  A
C679        C724   1.498       .  S
C680        H684   1.084       .  S
C681        C682   1.406   1_556  A
C681        C688   1.483       .  S
C682        H685   1.084       .  S
C686        C687   1.408       .  A
C686        C691   1.413       .  A
C686        C770   1.487       .  S
C689        C690   1.395       .  A
C689        H693   1.085   1_556  S
C690        C691   1.396       .  A
C690        C697   1.466       .  S
C691        H694   1.079       .  S
C695        C696   1.413   1_554  A
C695        C757   1.477       .  S
C696        C697   1.403       .  A
C696        H701   1.082   1_556  S
C698        C699   1.396       .  A
C698        H702   1.085       .  S
C699        C700   1.397       .  A
C699        C706   1.469       .  S
C700        H703   1.085       .  S
C704        C705   1.397       .  A
C704        C709   1.417       .  A
C704        C774   1.480       .  S
C705        C706   1.392       .  A
C705        H710   1.085       .  S
C706        C707   1.395       .  A
C707        H711   1.084       .  S
C708        C715   1.476       .  S
C713        C714   1.396   1_554  A
C713        C718   1.415   1_554  A
C713        C753   1.478       .  S
C714        C715   1.396       .  A
C714        H719   1.085       .  S
C715        C716   1.406       .  A
C716        C717   1.405       .  A
C716        H720   1.084       .  S
C717        C718   1.407       .  A
C717        C726   1.491       .  S
C718        H721   1.083   1_556  S
C722        C723   1.416       .  A
C722        C727   1.414       .  A
C722        C766   1.500       .  S
C723        C724   1.409       .  A
C723        H728   1.084       .  S
C724        C725   1.406       .  A
C725        C726   1.405       .  A
C725        H729   1.084       .  S
C726        C727   1.405       .  A
C727        H730   1.082       .  S
O731       Cr749   1.970       .  S
O731        C739   1.259       .  A
O732       Cr749   1.980       .  S
O732        C733   1.254       .  A
C733        C754   1.469       .  S
C733        O734   1.263       .  A
O734       Cr750   2.005       .  S
O735       Cr750   2.017       .  S
O735        C736   1.268       .  A
C736        C762   1.487       .  S
C736        O737   1.262       .  A
O737       Cr751   1.984       .  S
O738       Cr751   2.007       .  S
O738        C739   1.271       .  A
C739        C758   1.471       .  S
O740       Cr749   1.980       .  S
O740        C748   1.255       .  A
O741       Cr749   1.964       .  S
O741        C742   1.258       .  A
C742        C797   1.471       .  S
C742        O743   1.274       .  A
O743       Cr750   2.024       .  S
O744       Cr750   2.004       .  S
O744        C745   1.267       .  A
C745        C790   1.487       .  S
C745        O746   1.264       .  A
O746       Cr751   1.998       .  S
O747       Cr751   1.999       .  S
O747        C748   1.262       .  A
C748        C785   1.466       .  S
Cr749       O752   1.775       .  S
Cr750       O752   1.770       .  S
Cr751       O752   1.765       .  S
C753        C754   1.337       .  D
C753        H755   1.087       .  S
C754        H756   1.087       .  S
C757        C758   1.341       .  D
C757        H759   1.088       .  S
C758        H760   1.085       .  S
C761        C762   1.351       .  D
C761        H763   1.087       .  S
C762        H764   1.084       .  S
C765        C766   1.354       .  D
C765        H767   1.084       .  S
C766        H768   1.087       .  S
C769        C770   1.344       .  D
C769        H771   1.082       .  S
C770        H772   1.087       .  S
C773        C774   1.337       .  D
C773        H775   1.085       .  S
C774        H776   1.088       .  S
C777        C778   1.339       .  D
C777        H779   1.087       .  S
C778        H780   1.084       .  S
C781        C782   1.342       .  D
C781        H783   1.088       .  S
C782        H784   1.086       .  S
C785        C786   1.338       .  D
C785        H787   1.085       .  S
C786        H788   1.087       .  S
C789        C790   1.346       .  D
C789        H791   1.087       .  S
C790        H792   1.084       .  S
C793        C794   1.342       .  D
C793        H795   1.086       .  S
C794        H796   1.087       .  S
C797        C798   1.340       .  D
C797        H799   1.086       .  S
C798        H800   1.087       .  S
