geometry optimzed in LAMMPS
_audit_creation_date              2020-11-30 
_audit_creation_method            'lammps2cif' 
_symmetry_space_group_name_H-M    'P1' 
_symmetry_Int_Tables_number       1 
_symmetry_cell_setting            triclinic 
loop_ 
_symmetry_equiv_pos_as_xyz 
  x,y,z 
_cell_length_a                    51.29199992709912 
_cell_length_b                    47.45027046186342 
_cell_length_c                    49.82114002346559 
_cell_angle_alpha                 90.34206294483813 
_cell_angle_beta                  90.02511169545588 
_cell_angle_gamma                 90.26071275526802 
loop_ 
_atom_site_label 
_atom_site_type_symbol 
_atom_site_fract_x 
_atom_site_fract_y 
_atom_site_fract_z 
_atom_site_charge 
N1          N  0.15142503  0.21669349  0.03483850    -0.07020
N2          N  0.17140882  0.20283402  0.04531608    -0.59140
N3          N  0.13085488  0.19885433  0.47533200    -0.06700
N4          N  0.13519905  0.17439534  0.46408137    -0.61270
N5          N  0.15214754  0.21457088  0.47558306    -0.06300
N6          N  0.17175746  0.19971590  0.46532885    -0.59120
N7          N  0.13040126  0.20052048  0.03552979    -0.05980
N8          N  0.13554289  0.17635496  0.04694712    -0.61620
C9          C  0.16097536  0.17773962  0.05283159     0.95150
C10         C  0.16056312  0.17466614  0.45814997     0.94930
N11         N  0.05435677  0.22154107  0.47014509    -0.07210
N12         N  0.04613577  0.22279494  0.44492858    -0.59720
N13         N  0.07044908  0.20502714  0.03582479    -0.05330
N14         N  0.07215582  0.19506392  0.06042428    -0.60970
N15         N  0.05174051  0.22370256  0.03417986    -0.07240
N16         N  0.04005415  0.22650222  0.05773844    -0.59990
N17         N  0.07200678  0.20179911  0.47242857    -0.04970
N18         N  0.07600030  0.18927293  0.44913160    -0.61060
Mn19       Mn  0.10030546  0.20142913  0.00498433     1.18440
C20         C  0.05983719  0.20239788  0.43203379     0.97230
C21         C  0.05298637  0.20844593  0.07380932     0.97900
N22         N  0.15499940  0.28566630  0.47424744    -0.07260
N23         N  0.17614921  0.29885412  0.46519125    -0.63570
N24         N  0.13401669  0.30490589  0.03266228    -0.06060
N25         N  0.13970721  0.32808521  0.04585224    -0.64240
N26         N  0.15356132  0.28692103  0.03347970    -0.06770
N27         N  0.17338513  0.29842608  0.04684519    -0.63830
N28         N  0.13484848  0.30281403  0.47248015    -0.05660
N29         N  0.14155150  0.32658747  0.46122806    -0.64520
Mn30       Mn  0.15391657  0.25095195  0.50447031     1.10660
C31         C  0.16716739  0.32434171  0.45708106     0.98460
C32         C  0.16395966  0.32385857  0.05475697     0.98530
N33         N  0.05508621  0.28731303  0.03360977    -0.06770
N34         N  0.04595376  0.28545109  0.05852171    -0.62150
N35         N  0.07571714  0.30437352  0.46979456    -0.06090
N36         N  0.08047992  0.31528472  0.44607426    -0.58880
N37         N  0.05690401  0.28564907  0.46830154    -0.07400
N38         N  0.04877116  0.28335641  0.44303409    -0.61710
N39         N  0.07423264  0.30573251  0.03295797    -0.06390
N40         N  0.07816670  0.31679706  0.05692684    -0.58900
Mn41       Mn  0.05286218  0.25471009  0.00136007     1.20190
Mn42       Mn  0.10405906  0.30469555  0.50200327     1.10090
Cl43       Cl  0.10334814  0.25293084  0.00323503    -0.86870
C44         C  0.06049281  0.30417566  0.07287523     0.95460
C45         C  0.06363991  0.30223485  0.42939033     0.95260
N46         N  0.44320467  0.21984403  0.03800510    -0.07020
N47         N  0.45186291  0.22260828  0.06303254    -0.59140
N48         N  0.42634796  0.19908020  0.47388217    -0.06700
N49         N  0.42289008  0.18742652  0.45005042    -0.61270
N50         N  0.44473900  0.21832550  0.47300011    -0.06300
N51         N  0.45388784  0.22018270  0.44815600    -0.59120
N52         N  0.42436242  0.20106026  0.03720661    -0.05980
N53         N  0.42004151  0.19070440  0.06127605    -0.61620
C54         C  0.43723564  0.20416341  0.07737858     0.95150
C55         C  0.44011818  0.20061799  0.43402202     0.94930
N56         N  0.34710714  0.21606218  0.47204589    -0.07210
N57         N  0.32833331  0.20360315  0.45777457    -0.59720
N58         N  0.36432780  0.19972366  0.03294976    -0.05330
N59         N  0.35765963  0.17623180  0.04489948    -0.60970
N60         N  0.34439467  0.21723094  0.03174344    -0.07240
N61         N  0.32359072  0.20513309  0.04271932    -0.59990
N62         N  0.36750050  0.19926035  0.47301425    -0.04970
N63         N  0.36368021  0.17640917  0.45878536    -0.61060
Mn64       Mn  0.39624913  0.19951021  0.00448687     1.18440
C65         C  0.33952445  0.17915407  0.44920437     0.97230
C66         C  0.33249951  0.17972730  0.05107715     0.97900
N67         N  0.44596919  0.28251087  0.47253467    -0.07260
N68         N  0.45597445  0.28018521  0.44806252    -0.63570
N69         N  0.42554371  0.30196885  0.03627944    -0.06060
N70         N  0.42195302  0.31280177  0.06044768    -0.64240
N71         N  0.44462298  0.28363631  0.03653762    -0.06770
N72         N  0.45458377  0.28194787  0.06097991    -0.63830
N73         N  0.42766685  0.30172177  0.47274909    -0.05660
N74         N  0.42490666  0.31272418  0.44869851    -0.64520
Mn75       Mn  0.44622623  0.25098287  0.00495374     1.10660
C76         C  0.44260109  0.29927086  0.43337784     0.98460
C77         C  0.44024209  0.30024434  0.07566124     0.98530
N78         N  0.34500624  0.28773415  0.03093497    -0.06770
N79         N  0.32428566  0.30115755  0.04053559    -0.62150
N80         N  0.36847660  0.30339071  0.47200579    -0.06090
N81         N  0.36473040  0.32638443  0.45823291    -0.58880
N82         N  0.34761005  0.28703019  0.47153687    -0.07400
N83         N  0.32868773  0.29996910  0.45814948    -0.61710
N84         N  0.36550156  0.30469504  0.03204404    -0.06390
N85         N  0.35927459  0.32903636  0.04277625    -0.58900
Mn86       Mn  0.34501442  0.25196492  0.00151214     1.20190
Mn87       Mn  0.39740819  0.30317315  0.00348819     1.10090
Cl88       Cl  0.39563411  0.25143129  0.00371063    -0.86870
C89         C  0.33374404  0.32685217  0.04792245     0.95460
C90         C  0.34015180  0.32425300  0.44951850     0.95260
N91         N  0.21969554  0.03763732  0.10665585    -0.07020
N92         N  0.20937490  0.05090368  0.08579459    -0.59140
N93         N  0.27827395  0.05427767  0.12749428    -0.06700
N94         N  0.28945254  0.07841862  0.12208025    -0.61270
N95         N  0.27725055  0.03793941  0.10593709    -0.06300
N96         N  0.28701295  0.05200531  0.08515124    -0.59120
N97         N  0.21987648  0.05476766  0.12767488    -0.05980
N98         N  0.20924083  0.07900030  0.12173292    -0.61620
C99         C  0.20287682  0.07663755  0.09577573     0.95150
C100        C  0.29471009  0.07721508  0.09582368     0.94930
N101        N  0.28108917  0.03318111  0.20730324    -0.07210
N102        N  0.30517704  0.03111063  0.21675668    -0.59720
N103        N  0.21873486  0.05291619  0.18949738    -0.05330
N104        N  0.19569329  0.06498850  0.18711621    -0.60970
N105        N  0.21812366  0.03318571  0.20786772    -0.07240
N106        N  0.19426553  0.03118519  0.21792344    -0.59990
N107        N  0.28019558  0.05293733  0.18900637    -0.04970
N108        N  0.30327645  0.06497387  0.18609099    -0.61060
Mn109      Mn  0.24924515  0.05383963  0.15899903     1.18440
C110        C  0.31871367  0.05143949  0.20366245     0.97230
C111        C  0.18059962  0.05151757  0.20512897     0.97900
N112        N  0.27674565  0.46677931  0.10477722    -0.07260
N113        N  0.28621852  0.45355560  0.08330660    -0.63570
N114        N  0.21872166  0.45046322  0.12749271    -0.06060
N115        N  0.20550965  0.42734352  0.12303308    -0.64240
N116        N  0.21908408  0.46669527  0.10609799    -0.06770
N117        N  0.20689826  0.45340134  0.08603285    -0.63830
N118        N  0.27729482  0.44954128  0.12549735    -0.05660
N119        N  0.28772751  0.42535308  0.11878655    -0.64520
Mn120      Mn  0.24821557  0.00223482  0.10501667     1.10660
C121        C  0.29306958  0.42775451  0.09262309     0.98460
C122        C  0.19810553  0.42905419  0.09740485     0.98530
N123        N  0.21862008  0.46848116  0.20809973    -0.06770
N124        N  0.19567115  0.46843479  0.22025409    -0.62150
N125        N  0.27994154  0.45028319  0.18722108    -0.06090
N126        N  0.30287208  0.43817877  0.18432803    -0.58880
N127        N  0.28045881  0.46874031  0.20692754    -0.07400
N128        N  0.30395307  0.46942974  0.21792111    -0.61710
N129        N  0.21865132  0.44981454  0.18861525    -0.06390
N130        N  0.19590234  0.43675823  0.18709372    -0.58900
Mn131      Mn  0.24956505  0.50105914  0.20915799     1.20190
Mn132      Mn  0.24873850  0.44994140  0.15761789     1.10090
Cl133      Cl  0.24895850  0.50177366  0.15743554    -0.86870
C134        C  0.18167859  0.44828037  0.20711084     0.95460
C135        C  0.31769953  0.45010281  0.20368762     0.95260
N136        N  0.21782290  0.03300177  0.30311090    -0.07020
N137        N  0.19451253  0.03204388  0.29170259    -0.59140
N138        N  0.27919944  0.05359293  0.32090594    -0.06700
N139        N  0.30182396  0.06685843  0.32240915    -0.61270
N140        N  0.27958190  0.03447361  0.30182362    -0.06300
N141        N  0.30263095  0.03442928  0.28992482    -0.59120
N142        N  0.21795141  0.05180795  0.32253205    -0.05980
N143        N  0.19490601  0.06389176  0.32475391    -0.61620
C144        C  0.18037996  0.05162010  0.30527100     0.95150
C145        C  0.31631443  0.05495037  0.30284330     0.94930
N146        N  0.28048796  0.03665210  0.40296312    -0.07210
N147        N  0.29419473  0.04865104  0.42261608    -0.59720
N148        N  0.22152594  0.05308181  0.38468598    -0.05330
N149        N  0.21004514  0.07662322  0.39168061    -0.60970
N150        N  0.22255931  0.03548501  0.40511746    -0.07240
N151        N  0.21198640  0.04751907  0.42659537    -0.59990
N152        N  0.27978592  0.05375823  0.38219164    -0.04970
N153        N  0.29357464  0.07656268  0.38670668    -0.61060
Mn154      Mn  0.24945314  0.05331193  0.35210315     1.18440
C155        C  0.30266878  0.07320638  0.41162215     0.97230
C156        C  0.20412429  0.07302295  0.41758410     0.97900
N157        N  0.28160362  0.46978898  0.30274038    -0.07260
N158        N  0.30576255  0.47231820  0.29342692    -0.63570
N159        N  0.21929385  0.44912746  0.32213634    -0.06060
N160        N  0.19626855  0.43689285  0.32503958    -0.64240
N161        N  0.21851075  0.46830795  0.30327227    -0.06770
N162        N  0.19465204  0.46958070  0.29319204    -0.63830
N163        N  0.28080345  0.44983382  0.32087821    -0.05660
N164        N  0.30392452  0.43811107  0.32374051    -0.64520
Mn165      Mn  0.24941543  0.00123949  0.30122153     1.10660
C166        C  0.31937954  0.45201417  0.30639791     0.98460
C167        C  0.18112992  0.44946633  0.30656108     0.98530
N168        N  0.22336755  0.46536228  0.40485497    -0.06770
N169        N  0.21451907  0.45211356  0.42644289    -0.62150
N170        N  0.28067412  0.44903026  0.38211898    -0.06090
N171        N  0.29388138  0.42610049  0.38708591    -0.59300
N172        N  0.28092297  0.46627653  0.40299379    -0.07400
N173        N  0.29370898  0.45430246  0.42310244    -0.61710
N174        N  0.22241330  0.44805446  0.38398185    -0.06390
N175        N  0.21242918  0.42366919  0.39079498    -0.58900
Mn176      Mn  0.25188511  0.00100249  0.40486848     1.20190
Mn177      Mn  0.25063866  0.44881634  0.35166924     1.10090
Cl178      Cl  0.25023593  0.00111854  0.35296499    -0.86870
C179        C  0.20771656  0.42618935  0.41709368     0.95460
C180        C  0.30207829  0.42955718  0.41236469     0.95260
N181        N  0.02861068  0.16457324  0.22030440    -0.07020
N182        N  0.03765145  0.18697206  0.20728383    -0.59140
N183        N  0.47053726  0.14348425  0.20402511    -0.06700
N184        N  0.45688325  0.14963848  0.18260965    -0.61270
N185        N  0.47085602  0.16488138  0.22107697    -0.06300
N186        N  0.45827209  0.18659503  0.21040578    -0.59120
N187        N  0.02999068  0.14237655  0.20429251    -0.05980
N188        N  0.04136518  0.14889600  0.18158482    -0.61620
C189        C  0.04602997  0.17663995  0.18325773     0.95150
C190        C  0.44909063  0.17629982  0.18663263     0.94930
N191        N  0.46826056  0.05735558  0.21936464    -0.07210
N192        N  0.44531795  0.04455265  0.21861219    -0.59720
N193        N  0.03039558  0.07772577  0.20336530    -0.05330
N194        N  0.05387832  0.08040468  0.19274706    -0.60970
N195        N  0.02987284  0.05660897  0.22027273    -0.07240
N196        N  0.05300664  0.04437048  0.22120752    -0.59990
N197        N  0.46850632  0.07851967  0.20254523    -0.04970
N198        N  0.44569633  0.08078999  0.19037233    -0.61060
Mn199      Mn  0.99983837  0.11008345  0.20329480     1.18440
C200        C  0.43144612  0.05916890  0.20020277     0.97230
C201        C  0.06776770  0.05927989  0.20374677     0.97900
N202        N  0.47116125  0.16282901  0.28842776    -0.07260
N203        N  0.45846559  0.18373183  0.30059168    -0.63570
N204        N  0.02985535  0.13936902  0.30311697    -0.06060
N205        N  0.04400632  0.14417003  0.32463323    -0.64240
N206        N  0.02963393  0.16166193  0.28738989    -0.06770
N207        N  0.04294208  0.18244692  0.29904873    -0.63830
N208        N  0.47060138  0.14035216  0.30387396    -0.05660
N209        N  0.45680670  0.14503269  0.32559527    -0.64520
Mn210      Mn  0.50004344  0.16440972  0.25444391     1.10660
C211        C  0.44898348  0.17185907  0.32347813     0.98460
C212        C  0.05235089  0.17085523  0.32199559     0.98530
N213        N  0.02938121  0.05480140  0.28168264    -0.06770
N214        N  0.05244780  0.04258133  0.28005278    -0.62150
N215        N  0.46792557  0.07572216  0.30022755    -0.06090
N216        N  0.44448776  0.07856392  0.31097985    -0.58880
N217        N  0.46758037  0.05621325  0.28140507    -0.07400
N218        N  0.44387677  0.04544658  0.27918616    -0.61710
N219        N  0.02973325  0.07431947  0.30045541    -0.06390
N220        N  0.05295575  0.07560495  0.31195254    -0.58900
Mn221      Mn  0.99867863  0.05473156  0.25070204     1.20190
Mn222      Mn  0.99955275  0.10695317  0.30237171     1.10090
Cl223      Cl  0.99946743  0.10930211  0.25271435    -0.86870
C224        C  0.06701480  0.05555563  0.29917969     0.95460
C225        C  0.42956941  0.05943709  0.29778925     0.95260
N226        N  0.03032200  0.44632244  0.22658810    -0.07020
N227        N  0.05403059  0.45718127  0.22887169    -0.59140
N228        N  0.46832952  0.42657322  0.20825169    -0.06700
N229        N  0.44500294  0.42426199  0.19712063    -0.61270
N230        N  0.46826062  0.44592413  0.22719888    -0.06300
N231        N  0.44474624  0.45694992  0.22938241    -0.59120
N232        N  0.03007805  0.42674494  0.20781963    -0.05980
N233        N  0.05350784  0.42408532  0.19706088    -0.61620
C234        C  0.06832882  0.44332135  0.21020010     0.95150
C235        C  0.43042814  0.44340945  0.21039557     0.94930
N236        N  0.47016032  0.33950437  0.22119240    -0.07210
N237        N  0.45808797  0.31813387  0.20908041    -0.59720
N238        N  0.02846194  0.36180895  0.20408890    -0.05330
N239        N  0.04167982  0.35716271  0.18199866    -0.60970
N240        N  0.02840903  0.33931062  0.21952115    -0.07240
N241        N  0.04084710  0.31841045  0.20699916    -0.59990
N242        N  0.46918111  0.36185888  0.20559559    -0.04970
N243        N  0.45556704  0.35645738  0.18383371    -0.61060
Mn244      Mn  0.49902248  0.39479305  0.20603140     1.18440
C245        C  0.44844375  0.32932037  0.18605385     0.97230
C246        C  0.04957865  0.33031636  0.18381813     0.97900
N247        N  0.46899953  0.44518153  0.28905955    -0.07260
N248        N  0.44613053  0.45800856  0.28978255    -0.63570
N249        N  0.03108980  0.42476031  0.30507437    -0.06060
N250        N  0.05447458  0.42236088  0.31595212    -0.64240
N251        N  0.03075815  0.44567918  0.28796628    -0.06770
N252        N  0.05394159  0.45803883  0.28707940    -0.63830
N253        N  0.46915164  0.42414931  0.30604840    -0.05660
N254        N  0.44637307  0.42200567  0.31832977    -0.64520
Mn255      Mn  0.49951545  0.44731403  0.25760326     1.10660
C256        C  0.43224226  0.44354767  0.30839169     0.98460
C257        C  0.06843575  0.44355866  0.30497688     0.98530
N258        N  0.02996636  0.33845408  0.28681711    -0.06770
N259        N  0.04424682  0.31774082  0.29702284    -0.62150
N260        N  0.47083979  0.35931553  0.30467853    -0.06090
N261        N  0.45766795  0.35309488  0.32643209    -0.58880
N262        N  0.47150203  0.33762677  0.28800999    -0.07400
N263        N  0.45962924  0.31575959  0.29931904    -0.61710
N264        N  0.03017529  0.36009874  0.30355428    -0.06390
N265        N  0.04526547  0.35520254  0.32419025    -0.58900
Mn266      Mn  0.50005661  0.33769562  0.25391896     1.20190
Mn267      Mn  0.50026203  0.39244417  0.30521242     1.10090
Cl268      Cl  0.49971178  0.39280325  0.25568101    -0.86870
C269        C  0.05422464  0.32902973  0.32009526     0.95460
C270        C  0.45044237  0.32612745  0.32301532     0.95260
C271        C  0.40346221  0.44595921  0.31151678    -0.06370
C272        C  0.38786040  0.42152987  0.31119457    -0.33800
C273        C  0.36055234  0.42331393  0.30943448     0.35450
C274        C  0.34832508  0.44977215  0.30728434    -0.06730
C275        C  0.36385213  0.47419388  0.30893046    -0.33700
C276        C  0.39113632  0.47238001  0.31148538     0.35360
H277        H  0.39688759  0.40093052  0.31128597     0.15730
O278        O  0.34603500  0.39897999  0.30869590    -0.61200
H279        H  0.35471644  0.49467431  0.30894296     0.15740
O280        O  0.40576823  0.49650667  0.31336606    -0.61290
H281        H  0.40578439  0.00154267  0.33271837     0.42740
H282        H  0.34379723  0.39350215  0.32774186     0.42690
C283        C  0.09723337  0.44482148  0.30592559    -0.06370
C284        C  0.10994687  0.46749125  0.31852386    -0.33800
C285        C  0.13727587  0.46865498  0.31957023     0.35450
C286        C  0.15230613  0.44755066  0.30691622    -0.06730
C287        C  0.13957517  0.42463680  0.29470974    -0.33700
C288        C  0.11222788  0.42308644  0.29431881     0.35360
H289        H  0.09865943  0.48400046  0.32805481     0.15730
O290        O  0.14900707  0.48959780  0.33438528    -0.61200
H291        H  0.15084507  0.40815991  0.28511592     0.15740
O292        O  0.10028443  0.40081819  0.28156184    -0.61290
H293        H  0.09833808  0.38611739  0.29549367     0.42740
H294        H  0.15883617  0.50105458  0.32132700     0.42690
C295        C  0.34503601  0.05863669  0.30053097    -0.06370
C296        C  0.35844862  0.04355643  0.28072213    -0.33800
C297        C  0.38564652  0.04348886  0.27998473     0.35450
C298        C  0.40045141  0.05877541  0.29904532    -0.06730
C299        C  0.38703749  0.07475789  0.31838914    -0.33700
C300        C  0.35963074  0.07491866  0.31915356     0.35360
H301        H  0.34785601  0.03103673  0.26603809     0.15730
O302        O  0.39753883  0.02812991  0.26039028    -0.61200
H303        H  0.39777069  0.08713713  0.33305081     0.15740
O304        O  0.34743902  0.09049239  0.33865957    -0.61290
H305        H  0.34558653  0.10960409  0.33096457     0.42740
H306        H  0.40387635  0.04252794  0.24778189     0.42690
C307        C  0.09596161  0.05341371  0.30126944    -0.06370
C308        C  0.10916530  0.06722219  0.32232402    -0.33800
C309        C  0.13652702  0.06749386  0.32363586     0.35450
C310        C  0.15143004  0.05415411  0.30337470    -0.06730
C311        C  0.13818962  0.04070583  0.28222119    -0.33700
C312        C  0.11089086  0.03965525  0.28136469     0.35360
H313        H  0.09824313  0.07787289  0.33795269     0.15730
O314        O  0.14834070  0.08015189  0.34529471    -0.61200
H315        H  0.14913290  0.03070234  0.26634690     0.15740
O316        O  0.09911906  0.02541711  0.26065520    -0.61290
H317        H  0.09343943  0.00725821  0.26848998     0.42740
H318        H  0.15007781  0.10029642  0.34039499     0.42690
C319        C  0.34640529  0.44692575  0.20528993    -0.06370
C320        C  0.35923906  0.45364088  0.22927940    -0.33800
C321        C  0.38639716  0.45224886  0.23102198     0.35450
C322        C  0.40151916  0.44458758  0.20858242    -0.06730
C323        C  0.38871627  0.43738087  0.18461224    -0.33700
C324        C  0.36142034  0.43864392  0.18277061     0.35360
H325        H  0.34817037  0.45986649  0.24684113     0.15730
O326        O  0.39795973  0.45727589  0.25520981    -0.61200
H327        H  0.39990719  0.43122852  0.16711273     0.15740
O328        O  0.34976616  0.43233142  0.15867880    -0.61290
H329        H  0.34880263  0.45051023  0.14900834     0.42740
H330        H  0.40261935  0.47749391  0.25508138     0.42690
C331        C  0.09737478  0.44392862  0.20923234    -0.06370
C332        C  0.11137380  0.45590826  0.23070494    -0.33800
C333        C  0.13869671  0.45638482  0.23085220     0.35450
C334        C  0.15285484  0.44453509  0.20939429    -0.06730
C335        C  0.13886974  0.43166936  0.18826481    -0.33700
C336        C  0.11146911  0.43128481  0.18806655     0.35360
H337        H  0.10110154  0.46488286  0.24760936     0.15730
O338        O  0.15133896  0.46925537  0.25178488    -0.61200
H339        H  0.14914268  0.42262606  0.17130737     0.15740
O340        O  0.09873951  0.41933149  0.16659969    -0.61290
H341        H  0.09825075  0.39885020  0.17041780     0.42740
H342        H  0.15364352  0.48905936  0.24618190     0.42690
C343        C  0.34759488  0.05356415  0.20268619    -0.06370
C344        C  0.36271750  0.02899595  0.20120969    -0.33800
C345        C  0.38991199  0.03058915  0.19814758     0.35450
C346        C  0.40261279  0.05694601  0.19749403    -0.06730
C347        C  0.38739688  0.08150268  0.19796161    -0.33700
C348        C  0.36013538  0.07993059  0.20033297     0.35360
H349        H  0.35335419  0.00852184  0.20175968     0.15730
O350        O  0.40396614  0.00627595  0.19559132    -0.61200
H351        H  0.39671318  0.10203445  0.19748992     0.15740
O352        O  0.34594578  0.10435448  0.20077903    -0.61290
H353        H  0.34431236  0.10942257  0.22004363     0.42740
H354        H  0.41129403  0.50280473  0.21362252     0.42690
C355        C  0.09664405  0.05758554  0.20261371    -0.06370
C356        C  0.10889015  0.03130391  0.20062864    -0.33800
C357        C  0.13619292  0.02936889  0.20086572     0.35450
C358        C  0.15173083  0.05353717  0.20491356    -0.06730
C359        C  0.13957174  0.07992019  0.20605434    -0.33700
C360        C  0.11228410  0.08210272  0.20465257     0.35360
H361        H  0.09728309  0.01230779  0.19827685     0.15730
O362        O  0.14763510  0.00400415  0.19549196    -0.61200
H363        H  0.15125787  0.09888632  0.20813392     0.15740
O364        O  0.10107454  0.10822624  0.20653527    -0.61290
H365        H  0.10088068  0.11553795  0.18792649     0.42740
H366        H  0.14930772  0.50310907  0.17569242     0.42690
C367        C  0.29851503  0.40239519  0.07626825    -0.06370
C368        C  0.31581509  0.40359786  0.05470671    -0.33800
C369        C  0.32573041  0.37863747  0.04363617     0.35450
C370        C  0.31826045  0.35214481  0.05423596    -0.06730
C371        C  0.29849979  0.35094125  0.07339553    -0.33700
C372        C  0.28844796  0.37584173  0.08429774     0.35360
H373        H  0.32297694  0.42374861  0.04764338     0.15730
O374        O  0.34316007  0.38029066  0.02279075    -0.61200
H375        H  0.29208059  0.33080219  0.08119363     0.15740
O376        O  0.26967422  0.37391219  0.10382016    -0.61290
H377        H  0.25292764  0.37725389  0.09441859     0.42740
H378        H  0.35979852  0.38674306  0.03096792     0.42690
C379        C  0.30041573  0.10362558  0.08112455    -0.06370
C380        C  0.29559611  0.12952656  0.09441311    -0.33800
C381        C  0.30345048  0.15518079  0.08341508     0.35450
C382        C  0.31655183  0.15533924  0.05887911    -0.06730
C383        C  0.31948984  0.12988459  0.04443062    -0.33700
C384        C  0.31133589  0.10409818  0.05531989     0.35360
H385        H  0.28653256  0.12998623  0.11404100     0.15730
O386        O  0.30063533  0.17953912  0.09805771    -0.61200
H387        H  0.32955734  0.12984264  0.02530333     0.15740
O388        O  0.31538787  0.07958965  0.04124580    -0.61290
H389        H  0.33327448  0.07360834  0.04608696     0.42740
H390        H  0.28342094  0.18710628  0.09271459     0.42690
C391        C  0.32761535  0.34964871  0.43867970    -0.06370
C392        C  0.34319985  0.36667669  0.42219660    -0.33800
C393        C  0.33629223  0.39423445  0.41633502     0.35450
C394        C  0.31308485  0.40545005  0.42650175    -0.06730
C395        C  0.29704310  0.38859550  0.44286798    -0.33700
C396        C  0.30440160  0.36086638  0.44933796     0.35360
H397        H  0.36133173  0.35875553  0.41424470     0.15730
O398        O  0.35176834  0.40970904  0.39940143    -0.61200
H399        H  0.27841806  0.39654393  0.44974906     0.15740
O400        O  0.28907173  0.34520853  0.46621681    -0.61290
H401        H  0.29548774  0.34967975  0.48454562     0.42740
H402        H  0.36356319  0.42065930  0.41135075     0.42690
C403        C  0.31388379  0.09762824  0.42552453    -0.06370
C404        C  0.29843041  0.11333242  0.44343779    -0.33800
C405        C  0.30494507  0.14145010  0.44973097     0.35450
C406        C  0.32685529  0.15410292  0.43764092    -0.06730
C407        C  0.34204224  0.13822039  0.41974459    -0.33700
C408        C  0.33589023  0.11027403  0.41393180     0.35360
H409        H  0.28080945  0.10416652  0.45169701     0.15730
O410        O  0.29065922  0.15579440  0.46858384    -0.61200
H411        H  0.35951745  0.14727261  0.41101175     0.15740
O412        O  0.35103760  0.09563795  0.39601609    -0.61290
H413        H  0.36418802  0.08584100  0.40713090     0.42740
H414        H  0.27608119  0.16436280  0.45846707     0.42690
C415        C  0.44296382  0.30109040  0.40355288    -0.06370
C416        C  0.46554404  0.29424239  0.38914930    -0.33800
C417        C  0.46675923  0.29836427  0.36129478     0.35450
C418        C  0.44530807  0.30950108  0.34731215    -0.06730
C419        C  0.42222356  0.31466630  0.36137890    -0.33700
C420        C  0.42087293  0.31047153  0.38915821     0.35360
H421        H  0.48283640  0.28734069  0.39968869     0.15730
O422        O  0.48997314  0.29445669  0.34833632    -0.61200
H423        H  0.40584436  0.32423200  0.35119619     0.15740
O424        O  0.39811164  0.31685629  0.40213795    -0.61290
H425        H  0.39980663  0.33712670  0.40674326     0.42740
H426        H  0.49924914  0.31279056  0.34987966     0.42690
C427        C  0.44131676  0.30252982  0.10526723    -0.06370
C428        C  0.46542102  0.30106540  0.11831406    -0.33800
C429        C  0.46733085  0.30709024  0.14577230     0.35450
C430        C  0.44489928  0.31328255  0.16095396    -0.06730
C431        C  0.42052341  0.31277571  0.14831211    -0.33700
C432        C  0.41858191  0.30724950  0.12066918     0.35360
H433        H  0.48307023  0.29744004  0.10686766     0.15730
O434        O  0.49150154  0.31012195  0.15709995    -0.61200
H435        H  0.40319884  0.31849208  0.15948555     0.15740
O436        O  0.39446910  0.30756836  0.10877381    -0.61290
H437        H  0.38884338  0.28755168  0.10804911     0.42740
H438        H  0.49746101  0.32929505  0.15205392     0.42690
C439        C  0.43955866  0.19748415  0.40415845    -0.06370
C440        C  0.42197343  0.17813449  0.39252319    -0.33800
C441        C  0.42231646  0.17248639  0.36490560     0.35450
C442        C  0.44002672  0.18664299  0.34804705    -0.06730
C443        C  0.45530283  0.20846785  0.35903497    -0.33700
C444        C  0.45567441  0.21343525  0.38693093     0.35360
H445        H  0.40866451  0.16619686  0.40498424     0.15730
O446        O  0.40622504  0.15186057  0.35465285    -0.61200
H447        H  0.46863369  0.22001816  0.34634096     0.15740
O448        O  0.47269291  0.23305192  0.39709529    -0.61290
H449        H  0.48593990  0.22209502  0.40696760     0.42740
H450        H  0.41394356  0.13374004  0.36040432     0.42690
C451        C  0.43661546  0.20195724  0.10731743    -0.06370
C452        C  0.45306561  0.21858282  0.12377067    -0.33800
C453        C  0.45413099  0.21419880  0.15177347     0.35450
C454        C  0.43923795  0.19237153  0.16341420    -0.06730
C455        C  0.42068745  0.17841461  0.14749961    -0.33700
C456        C  0.41907345  0.18313915  0.11993080     0.35360
H457        H  0.46570357  0.23431203  0.11487735     0.15730
O458        O  0.47035062  0.23063235  0.16729765    -0.61200
H459        H  0.40894511  0.16167784  0.15608589     0.15740
O460        O  0.40138382  0.16758922  0.10536526    -0.61290
H461        H  0.38508054  0.17875237  0.10574204     0.42740
H462        H  0.48682447  0.22003908  0.16902627     0.42690
C463        C  0.18283335  0.35004077  0.45288456    -0.06370
C464        C  0.20450089  0.34967275  0.43601238    -0.33800
C465        C  0.21459397  0.37506394  0.42619561     0.35450
C466        C  0.20289278  0.40102115  0.43341970    -0.06730
C467        C  0.18370148  0.40151126  0.45314523    -0.33700
C468        C  0.17370194  0.37623296  0.46304208     0.35360
H469        H  0.21228246  0.32983427  0.42880287     0.15730
O470        O  0.23534340  0.37434811  0.40880495    -0.61200
H471        H  0.17500803  0.42129511  0.45929774     0.15740
O472        O  0.15361332  0.37741223  0.48118946    -0.61290
H473        H  0.16201124  0.37610195  0.49904979     0.42740
H474        H  0.22815871  0.36732052  0.39151814     0.42690
C475        C  0.19663432  0.09716425  0.43423631    -0.06370
C476        C  0.17275262  0.09658484  0.44732972    -0.33800
C477        C  0.16131832  0.12164186  0.45597635     0.35450
C478        C  0.17413602  0.14795334  0.45184413    -0.06730
C479        C  0.19933490  0.14806287  0.44115316    -0.33700
C480        C  0.21052965  0.12284570  0.43210950     0.35360
H481        H  0.16200602  0.07695630  0.44907418     0.15730
O482        O  0.13733466  0.12002452  0.46808571    -0.61200
H483        H  0.20979370  0.16774449  0.43855066     0.15740
O484        O  0.23480574  0.12347185  0.42053563    -0.61290
H485        H  0.23208606  0.13093016  0.40219872     0.42740
H486        H  0.12461950  0.11793650  0.45318133     0.42690
C487        C  0.18866687  0.40306533  0.08410500    -0.06370
C488        C  0.17547229  0.38374682  0.10063541    -0.33800
C489        C  0.17085892  0.35616173  0.09235699     0.35450
C490        C  0.17843194  0.34737249  0.06670390    -0.06730
C491        C  0.19173989  0.36637506  0.04989671    -0.33700
C492        C  0.19713484  0.39411416  0.05856404     0.35360
H493        H  0.16917168  0.38990728  0.12059013     0.15730
O494        O  0.15760563  0.33822600  0.10904062    -0.61200
H495        H  0.19695558  0.36004793  0.02967508     0.15740
O496        O  0.21121058  0.41181165  0.04237996    -0.61290
H497        H  0.19824889  0.42015731  0.03001175     0.42740
H498        H  0.17130861  0.32768664  0.11873845     0.42690
C499        C  0.19644689  0.10187429  0.08002333    -0.06370
C500        C  0.17746678  0.10053632  0.06001864    -0.33800
C501        C  0.16697850  0.12539465  0.04967379     0.35450
C502        C  0.17567152  0.15200443  0.05932577    -0.06730
C503        C  0.19685895  0.15325307  0.07684789    -0.33700
C504        C  0.20724103  0.12839597  0.08730606     0.35360
H505        H  0.16959483  0.08035312  0.05363159     0.15730
O506        O  0.14805266  0.12348675  0.03025305    -0.61200
H507        H  0.20434950  0.17344509  0.08368370     0.15740
O508        O  0.22778544  0.13020035  0.10491557    -0.61290
H509        H  0.22021061  0.13700519  0.12207151     0.42740
H510        H  0.13194333  0.11771770  0.03980233     0.42690
C511        C  0.06530265  0.30500424  0.39958275    -0.06370
C512        C  0.05130833  0.28684417  0.38232884    -0.33800
C513        C  0.05189857  0.29061045  0.35428315     0.35450
C514        C  0.06512305  0.31391590  0.34337254    -0.06730
C515        C  0.08151604  0.32979831  0.36019272    -0.33700
C516        C  0.08165605  0.32567890  0.38792483     0.35360
H517        H  0.03919665  0.27042501  0.39064400     0.15730
O518        O  0.03749710  0.27310404  0.33805200    -0.61200
H519        H  0.09210674  0.34768803  0.35214916     0.15740
O520        O  0.09682249  0.34322631  0.40344724    -0.61290
H521        H  0.08598404  0.36015235  0.40676740     0.42740
H522        H  0.05044907  0.26111662  0.32868305     0.42690
C523        C  0.06107854  0.30700620  0.10281514    -0.06370
C524        C  0.04722862  0.28834405  0.11960490    -0.33800
C525        C  0.04682548  0.29241837  0.14774895     0.35450
C526        C  0.05944784  0.31607440  0.15923216    -0.06730
C527        C  0.07556399  0.33249107  0.14279312    -0.33700
C528        C  0.07648178  0.32825098  0.11508019     0.35360
H529        H  0.03616796  0.27106062  0.11091239     0.15730
O530        O  0.03220872  0.27469928  0.16339077    -0.61200
H531        H  0.08569716  0.35060138  0.15119261     0.15740
O532        O  0.09102928  0.34664724  0.10008039    -0.61290
H533        H  0.10831558  0.33760643  0.09826250     0.42740
H534        H  0.04429985  0.25950186  0.16875891     0.42690
C535        C  0.05940509  0.18655380  0.34655428    -0.06370
C536        C  0.07943020  0.17577716  0.36256854    -0.33800
C537        C  0.08030616  0.18141292  0.39019364     0.35450
C538        C  0.06083683  0.19821968  0.40238653    -0.06730
C539        C  0.04207629  0.21075159  0.38589515    -0.33700
C540        C  0.04103928  0.20480827  0.35831462     0.35360
H541        H  0.09332312  0.16111841  0.35399679     0.15730
O542        O  0.09998648  0.16977283  0.40506467    -0.61200
H543        H  0.02732715  0.22400678  0.39465433     0.15740
O544        O  0.02037210  0.21452935  0.34365613    -0.61290
H545        H  0.00832814  0.19820629  0.34201079     0.42740
H546        H  0.09415363  0.15025322  0.40891816     0.42690
C547        C  0.04967121  0.20668276  0.10311672    -0.06370
C548        C  0.02619424  0.19650087  0.11337469    -0.33800
C549        C  0.02442988  0.18859532  0.14029368     0.35450
C550        C  0.04581864  0.19258209  0.15789940    -0.06730
C551        C  0.06869535  0.20497297  0.14805012    -0.33700
C552        C  0.07075779  0.21189444  0.12073083     0.35360
H553        H  0.00993238  0.19226310  0.10001842     0.15730
O554        O  0.00242937  0.17469954  0.14877415    -0.61200
H555        H  0.08553004  0.20737150  0.16101424     0.15740
O556        O  0.09387986  0.22239074  0.11114905    -0.61290
H557        H  0.09163247  0.24313877  0.11100890     0.42740
H558        H  0.00363497  0.15541759  0.14108144     0.42690
N559        N  0.15142503  0.21669350  0.53483847    -0.07020
N560        N  0.17140881  0.20283403  0.54531605    -0.59140
N561        N  0.13085490  0.19885431  0.97533203    -0.06700
N562        N  0.13519907  0.17439533  0.96408139    -0.61270
N563        N  0.15214755  0.21457088  0.97558308    -0.06300
N564        N  0.17175747  0.19971591  0.96532887    -0.59120
N565        N  0.13040125  0.20052050  0.53552976    -0.05980
N566        N  0.13554287  0.17635498  0.54694709    -0.61620
C567        C  0.16097534  0.17773963  0.55283156     0.95150
C568        C  0.16056315  0.17466614  0.95814999     0.94930
N569        N  0.05435679  0.22154102  0.97014508    -0.07210
N570        N  0.04613580  0.22279486  0.94492856    -0.59720
N571        N  0.07044908  0.20502720  0.53582478    -0.05330
N572        N  0.07215583  0.19506397  0.56042427    -0.60970
N573        N  0.05174053  0.22370264  0.53417987    -0.07240
N574        N  0.04005418  0.22650230  0.55773846    -0.59990
N575        N  0.07200680  0.20179905  0.97242858    -0.04970
N576        N  0.07600031  0.18927284  0.94913163    -0.61060
Mn577      Mn  0.10030546  0.20142916  0.50498431     1.18440
C578        C  0.05983721  0.20239777  0.93203380     0.97230
C579        C  0.05298640  0.20844599  0.57380932     0.97900
N580        N  0.15499937  0.28566632  0.97424749    -0.07260
N581        N  0.17614917  0.29885413  0.96519126    -0.63570
N582        N  0.13401674  0.30490592  0.53266220    -0.06060
N583        N  0.13970728  0.32808524  0.54585216    -0.64240
N584        N  0.15356135  0.28692104  0.53347965    -0.06770
N585        N  0.17338517  0.29842607  0.54684515    -0.63830
N586        N  0.13484845  0.30281404  0.97248023    -0.05660
N587        N  0.14155145  0.32658749  0.96122814    -0.64520
Mn588      Mn  0.15391656  0.25095195  0.00447034     1.10660
C589        C  0.16716733  0.32434173  0.95708109     0.98460
C590        C  0.16395971  0.32385858  0.55475691     0.98530
N591        N  0.05508626  0.28731311  0.53360975    -0.06770
N592        N  0.04595382  0.28545120  0.55852170    -0.62150
N593        N  0.07571710  0.30437350  0.96979462    -0.06090
N594        N  0.08047987  0.31528477  0.94607434    -0.58880
N595        N  0.05690399  0.28564903  0.96830156    -0.07400
N596        N  0.04877115  0.28335642  0.94303411    -0.61710
N597        N  0.07423270  0.30573258  0.53295792    -0.06390
N598        N  0.07816677  0.31679716  0.55692678    -0.58900
Mn599      Mn  0.05286220  0.25471015  0.50136007     1.20190
Mn600      Mn  0.10405901  0.30469552  0.00200334     1.10090
Cl601      Cl  0.10334816  0.25293088  0.50323500    -0.86870
C602        C  0.06049289  0.30417577  0.57287519     0.95460
C603        C  0.06363987  0.30223492  0.92939039     0.95260
N604        N  0.44320467  0.21984401  0.53800513    -0.07020
N605        N  0.45186292  0.22260826  0.56303255    -0.59140
N606        N  0.42634800  0.19908022  0.97388214    -0.06700
N607        N  0.42289014  0.18742652  0.95005040    -0.61270
N608        N  0.44473904  0.21832552  0.97300009    -0.06300
N609        N  0.45388790  0.22018272  0.94815599    -0.59120
N610        N  0.42436241  0.20106025  0.53720665    -0.05980
N611        N  0.42004151  0.19070439  0.56127609    -0.61620
C612        C  0.43723565  0.20416341  0.57737861     0.95150
C613        C  0.44011826  0.20061799  0.93402201     0.94930
N614        N  0.34710717  0.21606217  0.97204583    -0.07210
N615        N  0.32833334  0.20360313  0.95777450    -0.59720
N616        N  0.36432779  0.19972368  0.53294983    -0.05330
N617        N  0.35765961  0.17623182  0.54489955    -0.60970
N618        N  0.34439466  0.21723096  0.53174350    -0.07240
N619        N  0.32359070  0.20513312  0.54271937    -0.59990
N620        N  0.36750053  0.19926035  0.97301419    -0.04970
N621        N  0.36368024  0.17640917  0.95878530    -0.61060
Mn622      Mn  0.39624911  0.19951021  0.50448692     1.18440
C623        C  0.33952449  0.17915405  0.94920431     0.97230
C624        C  0.33249949  0.17972732  0.55107721     0.97900
N625        N  0.44596920  0.28251090  0.97253464    -0.07260
N626        N  0.45597447  0.28018525  0.94806250    -0.63570
N627        N  0.42554372  0.30196884  0.53627947    -0.06060
N628        N  0.42195305  0.31280176  0.56044771    -0.64240
N629        N  0.44462299  0.28363629  0.53653764    -0.06770
N630        N  0.45458379  0.28194785  0.56097993    -0.63830
N631        N  0.42766686  0.30172180  0.97274907    -0.05660
N632        N  0.42490669  0.31272423  0.94869850    -0.64520
Mn633      Mn  0.44622622  0.25098285  0.50495376     1.10660
C634        C  0.44260112  0.29927092  0.93337783     0.98460
C635        C  0.44024212  0.30024433  0.57566126     0.98530
N636        N  0.34500625  0.28773416  0.53093502    -0.06770
N637        N  0.32428567  0.30115757  0.54053563    -0.62150
N638        N  0.36847661  0.30339071  0.97200575    -0.06090
N639        N  0.36473041  0.32638444  0.95823286    -0.58880
N640        N  0.34761006  0.28703020  0.97153681    -0.07400
N641        N  0.32868774  0.29996910  0.95814942    -0.61710
N642        N  0.36550157  0.30469505  0.53204409    -0.06390
N643        N  0.35927460  0.32903638  0.54277628    -0.58900
Mn644      Mn  0.34501441  0.25196493  0.50151220     1.20190
Mn645      Mn  0.39740819  0.30317314  0.50348822     1.10090
Cl646      Cl  0.39563410  0.25143129  0.50371068    -0.86870
C647        C  0.33374405  0.32685220  0.54792248     0.95460
C648        C  0.34015181  0.32425301  0.94951845     0.95260
N649        N  0.21969549  0.03763732  0.60665583    -0.07020
N650        N  0.20937485  0.05090368  0.58579458    -0.59140
N651        N  0.27827390  0.05427768  0.62749425    -0.06700
N652        N  0.28945250  0.07841863  0.62208023    -0.61270
N653        N  0.27725050  0.03793943  0.60593706    -0.06300
N654        N  0.28701290  0.05200533  0.58515121    -0.59120
N655        N  0.21987644  0.05476766  0.62767486    -0.05980
N656        N  0.20924078  0.07900030  0.62173291    -0.61620
C657        C  0.20287677  0.07663755  0.59577571     0.95150
C658        C  0.29471004  0.07721509  0.59582366     0.94930
N659        N  0.28108916  0.03318111  0.70730319    -0.07210
N660        N  0.30517704  0.03111063  0.71675660    -0.59720
N661        N  0.21873484  0.05291618  0.68949737    -0.05330
N662        N  0.19569326  0.06498848  0.68711620    -0.60970
N663        N  0.21812365  0.03318570  0.70786771    -0.07240
N664        N  0.19426552  0.03118516  0.71792343    -0.59990
N665        N  0.28019555  0.05293734  0.68900633    -0.04970
N666        N  0.30327643  0.06497388  0.68609093    -0.61060
Mn667      Mn  0.24924511  0.05383963  0.65899900     1.18440
C668        C  0.31871366  0.05143949  0.70366237     0.97230
C669        C  0.18059960  0.05151754  0.70512897     0.97900
N670        N  0.27674561  0.46677933  0.60477717    -0.07260
N671        N  0.28621849  0.45355563  0.58330655    -0.63570
N672        N  0.21872162  0.45046323  0.62749268    -0.06060
N673        N  0.20550962  0.42734353  0.62303306    -0.64240
N674        N  0.21908405  0.46669528  0.60609796    -0.06770
N675        N  0.20689823  0.45340135  0.58603283    -0.63830
N676        N  0.27729478  0.44954129  0.62549730    -0.05660
N677        N  0.28772747  0.42535309  0.61878650    -0.64520
Mn678      Mn  0.24821553  0.00223484  0.60501664     1.10660
C679        C  0.29306954  0.42775454  0.59262304     0.98460
C680        C  0.19810550  0.42905420  0.59740482     0.98530
N681        N  0.21862007  0.46848116  0.70809969    -0.06770
N682        N  0.19567114  0.46843482  0.72025404    -0.62150
N683        N  0.27994152  0.45028319  0.68722102    -0.06090
N684        N  0.30287205  0.43817876  0.68432797    -0.58880
N685        N  0.28045880  0.46874031  0.70692749    -0.07400
N686        N  0.30395307  0.46942973  0.71792105    -0.61710
N687        N  0.21865131  0.44981454  0.68861521    -0.06390
N688        N  0.19590231  0.43675826  0.68709367    -0.58900
Mn689      Mn  0.24956505  0.50105914  0.70915795     1.20190
Mn690      Mn  0.24873848  0.44994141  0.65761785     1.10090
Cl691      Cl  0.24895848  0.50177367  0.65743550    -0.86870
C692        C  0.18167856  0.44828041  0.70711079     0.95460
C693        C  0.31769951  0.45010280  0.70368755     0.95260
N694        N  0.21782287  0.03300175  0.80311082    -0.07020
N695        N  0.19451249  0.03204384  0.79170252    -0.59140
N696        N  0.27919940  0.05359294  0.82090586    -0.06700
N697        N  0.30182392  0.06685844  0.82240907    -0.61270
N698        N  0.27958186  0.03447363  0.80182354    -0.06300
N699        N  0.30263090  0.03442930  0.78992472    -0.59120
N700        N  0.21795136  0.05180793  0.82253197    -0.05980
N701        N  0.19490595  0.06389170  0.82475385    -0.61620
C702        C  0.18037990  0.05162003  0.80527094     0.95150
C703        C  0.31631438  0.05495039  0.80284321     0.94930
N704        N  0.28048793  0.03665210  0.90296304    -0.07210
N705        N  0.29419470  0.04865104  0.92261599    -0.59720
N706        N  0.22152590  0.05308181  0.88468590    -0.05330
N707        N  0.21004511  0.07662321  0.89168054    -0.60970
N708        N  0.22255927  0.03548501  0.90511738    -0.07240
N709        N  0.21198638  0.04751907  0.92659530    -0.59990
N710        N  0.27978587  0.05375824  0.88219156    -0.04970
N711        N  0.29357459  0.07656269  0.88670661    -0.61060
Mn712      Mn  0.24945310  0.05331192  0.85210307     1.18440
C713        C  0.30266874  0.07320638  0.91162208     0.97230
C714        C  0.20412428  0.07302296  0.91758403     0.97900
N715        N  0.28160360  0.46978900  0.80274028    -0.07260
N716        N  0.30576252  0.47231823  0.79342682    -0.63570
N717        N  0.21929383  0.44912748  0.82213622    -0.06060
N718        N  0.19626851  0.43689289  0.82503945    -0.64240
N719        N  0.21851074  0.46830796  0.80327214    -0.06770
N720        N  0.19465204  0.46958072  0.79319190    -0.63830
N721        N  0.28080343  0.44983383  0.82087811    -0.05660
N722        N  0.30392451  0.43811110  0.82374041    -0.64520
Mn723      Mn  0.24941541  0.00123950  0.80122143     1.10660
C724        C  0.31937952  0.45201420  0.80639781     0.98460
C725        C  0.18112990  0.44946637  0.80656094     0.98530
N726        N  0.22336750  0.46536227  0.90485486    -0.06770
N727        N  0.21451901  0.45211355  0.92644278    -0.62150
N728        N  0.28067408  0.44903025  0.88211888    -0.06090
N729        N  0.29388134  0.42610048  0.88708582    -0.59300
N730        N  0.28092293  0.46627652  0.90299369    -0.07400
N731        N  0.29370893  0.45430245  0.92310235    -0.61710
N732        N  0.22241326  0.44805446  0.88398173    -0.06390
N733        N  0.21242914  0.42366918  0.89079486    -0.58900
Mn734      Mn  0.25188508  0.00100248  0.90486839     1.20190
Mn735      Mn  0.25063862  0.44881634  0.85166914     1.10090
Cl736      Cl  0.25023590  0.00111854  0.85296490    -0.86870
C737        C  0.20771651  0.42618934  0.91709356     0.95460
C738        C  0.30207824  0.42955717  0.91236460     0.95260
N739        N  0.02861074  0.16457315  0.72030438    -0.07020
N740        N  0.03765151  0.18697197  0.70728381    -0.59140
N741        N  0.47053730  0.14348423  0.70402507    -0.06700
N742        N  0.45688329  0.14963848  0.68260962    -0.61270
N743        N  0.47085608  0.16488134  0.72107694    -0.06300
N744        N  0.45827215  0.18659500  0.71040579    -0.59120
N745        N  0.02999073  0.14237647  0.70429247    -0.05980
N746        N  0.04136522  0.14889593  0.68158479    -0.61620
C747        C  0.04603001  0.17663988  0.68325771     0.95150
C748        C  0.44909067  0.17629982  0.68663264     0.94930
N749        N  0.46826054  0.05735555  0.71936454    -0.07210
N750        N  0.44531792  0.04455262  0.71861207    -0.59720
N751        N  0.03039557  0.07772569  0.70336523    -0.05330
N752        N  0.05387832  0.08040459  0.69274701    -0.60970
N753        N  0.02987282  0.05660888  0.72027265    -0.07240
N754        N  0.05300661  0.04437038  0.72120745    -0.59990
N755        N  0.46850631  0.07851965  0.70254514    -0.04970
N756        N  0.44569633  0.08078999  0.69037223    -0.61060
Mn757      Mn  0.99983839  0.11008340  0.70329474     1.18440
C758        C  0.43144611  0.05916889  0.70020265     0.97230
C759        C  0.06776768  0.05927979  0.70374671     0.97900
N760        N  0.47116130  0.16282894  0.78842773    -0.07260
N761        N  0.45846568  0.18373179  0.80059166    -0.63570
N762        N  0.02985536  0.13936888  0.80311694    -0.06060
N763        N  0.04400632  0.14416986  0.82463322    -0.64240
N764        N  0.02963398  0.16166179  0.78738988    -0.06770
N765        N  0.04294214  0.18244677  0.79904873    -0.63830
N766        N  0.47060140  0.14035209  0.80387391    -0.05660
N767        N  0.45680673  0.14503263  0.82559523    -0.64520
Mn768      Mn  0.50004349  0.16440964  0.75444389     1.10660
C769        C  0.44898356  0.17185902  0.82347811     0.98460
C770        C  0.05235092  0.17085505  0.82199560     0.98530
N771        N  0.02938116  0.05480128  0.78168256    -0.06770
N772        N  0.05244774  0.04258121  0.78005271    -0.62150
N773        N  0.46792553  0.07572209  0.80022746    -0.06090
N774        N  0.44448772  0.07856387  0.81097975    -0.58880
N775        N  0.46758032  0.05621319  0.78140497    -0.07400
N776        N  0.44387671  0.04544655  0.77918604    -0.61710
N777        N  0.02973320  0.07431933  0.80045535    -0.06390
N778        N  0.05295570  0.07560479  0.81195249    -0.58900
Mn779      Mn  0.99867859  0.05473148  0.75070195     1.20190
Mn780      Mn  0.99955273  0.10695306  0.80237165     1.10090
Cl781      Cl  0.99946744  0.10930203  0.75271429    -0.86870
C782        C  0.06701475  0.05555548  0.79917963     0.95460
C783        C  0.42956936  0.05943706  0.79778913     0.95260
N784        N  0.03032197  0.44632258  0.72658795    -0.07020
N785        N  0.05403055  0.45718144  0.72887153    -0.59140
N786        N  0.46832950  0.42657328  0.70825159    -0.06700
N787        N  0.44500292  0.42426202  0.69712053    -0.61270
N788        N  0.46826060  0.44592421  0.72719875    -0.06300
N789        N  0.44474621  0.45694999  0.72938227    -0.59120
N790        N  0.03007802  0.42674507  0.70781950    -0.05980
N791        N  0.05350781  0.42408546  0.69706075    -0.61620
C792        C  0.06832879  0.44332150  0.71019995     0.95150
C793        C  0.43042812  0.44340949  0.71039545     0.94930
N794        N  0.47016041  0.33950444  0.72119238    -0.07210
N795        N  0.45808807  0.31813391  0.70908041    -0.59720
N796        N  0.02846199  0.36180908  0.70408884    -0.05330
N797        N  0.04167987  0.35716286  0.68199860    -0.60970
N798        N  0.02840912  0.33931077  0.71952110    -0.07240
N799        N  0.04084722  0.31841061  0.70699913    -0.59990
N800        N  0.46918117  0.36185893  0.70559555    -0.04970
N801        N  0.45556709  0.35645740  0.68383368    -0.61060
Mn802      Mn  0.49902250  0.39479315  0.70603132     1.18440
C803        C  0.44844383  0.32932039  0.68605385     0.97230
C804        C  0.04957875  0.33031653  0.68381808     0.97900
N805        N  0.46899951  0.44518167  0.78905942    -0.07260
N806        N  0.44613050  0.45800867  0.78978241    -0.63570
N807        N  0.03108979  0.42476055  0.80507426    -0.06060
N808        N  0.05447457  0.42236116  0.81595202    -0.64240
N809        N  0.03075813  0.44567939  0.78796614    -0.06770
N810        N  0.05394157  0.45803904  0.78707924    -0.63830
N811        N  0.46915165  0.42414946  0.80604829    -0.05660
N812        N  0.44637307  0.42200581  0.81832966    -0.64520
Mn813      Mn  0.49951543  0.44731417  0.75760313     1.10660
C814        C  0.43224225  0.44354778  0.80839157     0.98460
C815        C  0.06843573  0.44355893  0.80497675     0.98530
N816        N  0.02996646  0.33845430  0.78681709    -0.06770
N817        N  0.04424690  0.31774104  0.79702287    -0.62150
N818        N  0.47083987  0.35931567  0.80467849    -0.06090
N819        N  0.45766805  0.35309502  0.82643206    -0.58880
N820        N  0.47150213  0.33762690  0.78800996    -0.07400
N821        N  0.45962937  0.31575971  0.79931904    -0.61710
N822        N  0.03017536  0.36009898  0.80355423    -0.06390
N823        N  0.04526551  0.35520280  0.82419022    -0.58900
Mn824      Mn  0.50005671  0.33769576  0.75391893     1.20190
Mn825      Mn  0.50026207  0.39244437  0.80521234     1.10090
Cl826      Cl  0.49971181  0.39280339  0.75568093    -0.86870
C827        C  0.05422468  0.32902999  0.82009529     0.95460
C828        C  0.45044249  0.32612758  0.82301531     0.95260
C829        C  0.40346220  0.44595930  0.81151666    -0.06370
C830        C  0.38786040  0.42152994  0.81119445    -0.33800
C831        C  0.36055234  0.42331399  0.80943437     0.35450
C832        C  0.34832506  0.44977220  0.80728424    -0.06730
C833        C  0.36385210  0.47419394  0.80893035    -0.33700
C834        C  0.39113629  0.47238009  0.81148527     0.35360
H835        H  0.39688760  0.40093061  0.81128585     0.15730
O836        O  0.34603502  0.39898004  0.80869579    -0.61200
H837        H  0.35471640  0.49467436  0.80894285     0.15740
O838        O  0.40576819  0.49650675  0.81336595    -0.61290
H839        H  0.40578435  0.00154275  0.83271824     0.42740
H840        H  0.34379724  0.39350219  0.82774175     0.42690
C841        C  0.09723335  0.44482171  0.80592543    -0.06370
C842        C  0.10994689  0.46749133  0.81852389    -0.33800
C843        C  0.13727589  0.46865500  0.81957026     0.35450
C844        C  0.15230611  0.44755075  0.80691608    -0.06730
C845        C  0.13957510  0.42463703  0.79470940    -0.33700
C846        C  0.11222782  0.42308674  0.79431846     0.35360
H847        H  0.09865948  0.48400048  0.82805498     0.15730
O848        O  0.14900715  0.48959767  0.83438545    -0.61200
H849        H  0.15084498  0.40816020  0.78511545     0.15740
O850        O  0.10028432  0.40081863  0.78156131    -0.61290
H851        H  0.09833792  0.38611772  0.79549303     0.42740
H852        H  0.15883622  0.50105457  0.82132725     0.42690
C853        C  0.34503596  0.05863671  0.80053087    -0.06370
C854        C  0.35844855  0.04355650  0.78072199    -0.33800
C855        C  0.38564645  0.04348892  0.77998458     0.35450
C856        C  0.40045135  0.05877541  0.79904521    -0.06730
C857        C  0.38703745  0.07475785  0.81838906    -0.33700
C858        C  0.35963070  0.07491863  0.81915350     0.35360
H859        H  0.34785594  0.03103683  0.76603793     0.15730
O860        O  0.39753876  0.02813002  0.76039009    -0.61200
H861        H  0.39777067  0.08713705  0.83305076     0.15740
O862        O  0.34743900  0.09049231  0.83865955    -0.61290
H863        H  0.34558651  0.10960403  0.83096460     0.42740
H864        H  0.40387630  0.04252809  0.74778174     0.42690
C865        C  0.09596155  0.05341356  0.80126939    -0.06370
C866        C  0.10916523  0.06722200  0.82232400    -0.33800
C867        C  0.13652695  0.06749370  0.82363584     0.35450
C868        C  0.15142998  0.05415400  0.80337467    -0.06730
C869        C  0.13818958  0.04070575  0.78222113    -0.33700
C870        C  0.11089082  0.03965515  0.78136461     0.35360
H871        H  0.09824305  0.07787267  0.83795269     0.15730
O872        O  0.14834062  0.08015170  0.84529472    -0.61200
H873        H  0.14913286  0.03070232  0.76634681     0.15740
O874        O  0.09911903  0.02541707  0.76065509    -0.61290
H875        H  0.09343925  0.00725822  0.76848987     0.42740
H876        H  0.15007771  0.10029624  0.84039503     0.42690
C877        C  0.34640527  0.44692574  0.70528985    -0.06370
C878        C  0.35923904  0.45364089  0.72927931    -0.33800
C879        C  0.38639715  0.45224889  0.73102187     0.35450
C880        C  0.40151914  0.44458759  0.70858231    -0.06730
C881        C  0.38871624  0.43738085  0.68461215    -0.33700
C882        C  0.36142031  0.43864389  0.68277053     0.35360
H883        H  0.34817036  0.45986652  0.74684104     0.15730
O884        O  0.39795973  0.45727596  0.75520969    -0.61200
H885        H  0.39990716  0.43122849  0.66711264     0.15740
O886        O  0.34976612  0.43233137  0.65867873    -0.61290
H887        H  0.34880259  0.45051016  0.64900825     0.42740
H888        H  0.40261929  0.47749400  0.75508125     0.42690
C889        C  0.09737475  0.44392877  0.70923219    -0.06370
C890        C  0.11137376  0.45590846  0.73070478    -0.33800
C891        C  0.13869667  0.45638501  0.73085207     0.35450
C892        C  0.15285481  0.44453518  0.70939420    -0.06730
C893        C  0.13886972  0.43166942  0.68826474    -0.33700
C894        C  0.11146909  0.43128490  0.68806645     0.35360
H895        H  0.10110149  0.46488309  0.74760916     0.15730
O896        O  0.15133890  0.46925563  0.75178472    -0.61200
H897        H  0.14914267  0.42262606  0.67130734     0.15740
O898        O  0.09873950  0.41933153  0.66659960    -0.61290
H899        H  0.09825071  0.39885026  0.67041776     0.42740
H900        H  0.15364363  0.48905954  0.74618159     0.42690
C901        C  0.34759487  0.05356415  0.70268608    -0.06370
C902        C  0.36271749  0.02899595  0.70120956    -0.33800
C903        C  0.38991197  0.03058915  0.69814743     0.35450
C904        C  0.40261277  0.05694601  0.69749388    -0.06730
C905        C  0.38739687  0.08150268  0.69796148    -0.33700
C906        C  0.36013537  0.07993059  0.70033286     0.35360
H907        H  0.35335417  0.00852185  0.70175955     0.15730
O908        O  0.40396613  0.00627595  0.69559117    -0.61200
H909        H  0.39671317  0.10203445  0.69748979     0.15740
O910        O  0.34594577  0.10435448  0.70077893    -0.61290
H911        H  0.34431237  0.10942257  0.72004353     0.42740
H912        H  0.41129402  0.50280473  0.71362237     0.42690
C913        C  0.09664403  0.05758546  0.70261369    -0.06370
C914        C  0.10889016  0.03130385  0.70062843    -0.33800
C915        C  0.13619292  0.02936886  0.70086552     0.35450
C916        C  0.15173081  0.05353712  0.70491356    -0.06730
C917        C  0.13957170  0.07992012  0.70605454    -0.33700
C918        C  0.11228407  0.08210263  0.70465277     0.35360
H919        H  0.09728310  0.01230774  0.69827648     0.15730
O920        O  0.14763512  0.00400417  0.69549156    -0.61200
H921        H  0.15125782  0.09888624  0.70813429     0.15740
O922        O  0.10107448  0.10822613  0.70653565    -0.61290
H923        H  0.10088064  0.11553800  0.68792694     0.42740
H924        H  0.14930777  0.50310926  0.67569202     0.42690
C925        C  0.29851501  0.40239523  0.57626820    -0.06370
C926        C  0.31581510  0.40359789  0.55470670    -0.33800
C927        C  0.32573045  0.37863750  0.54363618     0.35450
C928        C  0.31826046  0.35214484  0.55423596    -0.06730
C929        C  0.29849976  0.35094128  0.57339549    -0.33700
C930        C  0.28844791  0.37584176  0.58429767     0.35360
H931        H  0.32297697  0.42374863  0.54764338     0.15730
O932        O  0.34316015  0.38029068  0.52279080    -0.61200
H933        H  0.29208054  0.33080222  0.58119357     0.15740
O934        O  0.26967414  0.37391224  0.60382005    -0.61290
H935        H  0.25292757  0.37725394  0.59441844     0.42740
H936        H  0.35979858  0.38674308  0.53096799     0.42690
C937        C  0.30041568  0.10362560  0.58112453    -0.06370
C938        C  0.29559604  0.12952657  0.59441309    -0.33800
C939        C  0.30345042  0.15518080  0.58341508     0.35450
C940        C  0.31655180  0.15533926  0.55887914    -0.06730
C941        C  0.31948982  0.12988462  0.54443064    -0.33700
C942        C  0.31133586  0.10409820  0.55531989     0.35360
H943        H  0.28653247  0.12998623  0.61404098     0.15730
O944        O  0.30063526  0.17953913  0.59805772    -0.61200
H945        H  0.32955734  0.12984268  0.52530336     0.15740
O946        O  0.31538786  0.07958968  0.54124579    -0.61290
H947        H  0.33327447  0.07360838  0.54608696     0.42740
H948        H  0.28342087  0.18710629  0.59271459     0.42690
C949        C  0.32761536  0.34964871  0.93867964    -0.06370
C950        C  0.34319986  0.36667672  0.92219657    -0.33800
C951        C  0.33629221  0.39423446  0.91633497     0.35450
C952        C  0.31308481  0.40545004  0.92650167    -0.06730
C953        C  0.29704305  0.38859546  0.94286787    -0.33700
C954        C  0.30440157  0.36086635  0.94933787     0.35360
H955        H  0.36133176  0.35875558  0.91424469     0.15730
O956        O  0.35176834  0.40970908  0.89940141    -0.61200
H957        H  0.27841799  0.39654387  0.94974892     0.15740
O958        O  0.28907169  0.34520849  0.96621668    -0.61290
H959        H  0.29548767  0.34967971  0.98454550     0.42740
H960        H  0.36356316  0.42065935  0.91135074     0.42690
C961        C  0.31388376  0.09762824  0.92552446    -0.06370
C962        C  0.29843037  0.11333245  0.94343769    -0.33800
C963        C  0.30494506  0.14145012  0.94973087     0.35450
C964        C  0.32685533  0.15410290  0.93764087    -0.06730
C965        C  0.34204228  0.13822034  0.91974456    -0.33700
C966        C  0.33589024  0.11027399  0.91393176     0.35360
H967        H  0.28080938  0.10416657  0.95169688     0.15730
O968        O  0.29065920  0.15579445  0.96858372    -0.61200
H969        H  0.35951752  0.14727253  0.91101175     0.15740
O970        O  0.35103761  0.09563788  0.89601608    -0.61290
H971        H  0.36418799  0.08584090  0.90713090     0.42740
H972        H  0.27608119  0.16436286  0.95846691     0.42690
C973        C  0.44296387  0.30109050  0.90355286    -0.06370
C974        C  0.46554405  0.29424236  0.88914927    -0.33800
C975        C  0.46675925  0.29836427  0.86129475     0.35450
C976        C  0.44530815  0.30950123  0.84731214    -0.06730
C977        C  0.42222367  0.31466657  0.86137891    -0.33700
C978        C  0.42087303  0.31047179  0.88915821     0.35360
H979        H  0.48283638  0.28734055  0.89968864     0.15730
O980        O  0.48997313  0.29445655  0.84833628    -0.61200
H981        H  0.40584451  0.32423238  0.85119621     0.15740
O982        O  0.39811177  0.31685670  0.90213796    -0.61290
H983        H  0.39980688  0.33712710  0.90674328     0.42740
H984        H  0.49924919  0.31279039  0.84987954     0.42690
C985        C  0.44131679  0.30252980  0.60526725    -0.06370
C986        C  0.46542105  0.30106534  0.61831408    -0.33800
C987        C  0.46733090  0.30709018  0.64577231     0.35450
C988        C  0.44489933  0.31328253  0.66095398    -0.06730
C989        C  0.42052346  0.31277573  0.64831213    -0.33700
C990        C  0.41858196  0.30724951  0.62066920     0.35360
H991        H  0.48307026  0.29743996  0.60686768     0.15730
O992        O  0.49150159  0.31012185  0.65709997    -0.61200
H993        H  0.40319890  0.31849213  0.65948557     0.15740
O994        O  0.39446914  0.30756840  0.60877383    -0.61290
H995        H  0.38884340  0.28755173  0.60804915     0.42740
H996        H  0.49746107  0.32929495  0.65205396     0.42690
C997        C  0.43955876  0.19748413  0.90415843    -0.06370
C998        C  0.42197352  0.17813450  0.89252318    -0.33800
C999        C  0.42231655  0.17248639  0.86490559     0.35450
C1000       C  0.44002683  0.18664295  0.84804704    -0.06730
C1001       C  0.45530297  0.20846779  0.85903497    -0.33700
C1002       C  0.45567455  0.21343519  0.88693092     0.35360
H1003       H  0.40866456  0.16619689  0.90498421     0.15730
O1004       O  0.40622511  0.15186059  0.85465283    -0.61200
H1005       H  0.46863386  0.22001807  0.84634095     0.15740
O1006       O  0.47269309  0.23305182  0.89709529    -0.61290
H1007       H  0.48594008  0.22209488  0.90696757     0.42740
H1008       H  0.41394360  0.13374004  0.86040430     0.42690
C1009       C  0.43661548  0.20195725  0.60731745    -0.06370
C1010       C  0.45306568  0.21858280  0.62377068    -0.33800
C1011       C  0.45413107  0.21419879  0.65177348     0.35450
C1012       C  0.43923799  0.19237155  0.66341422    -0.06730
C1013       C  0.42068745  0.17841467  0.64749966    -0.33700
C1014       C  0.41907344  0.18313921  0.61993084     0.35360
H1015       H  0.46570366  0.23431198  0.61487734     0.15730
O1016       O  0.47035074  0.23063231  0.66729763    -0.61200
H1017       H  0.40894509  0.16167793  0.65608595     0.15740
O1018       O  0.40138377  0.16758931  0.60536532    -0.61290
H1019       H  0.38508052  0.17875251  0.60574210     0.42740
H1020       H  0.48682451  0.22003892  0.66902640     0.42690
C1021       C  0.18283329  0.35004078  0.95288452    -0.06370
C1022       C  0.20450079  0.34967274  0.93601230    -0.33800
C1023       C  0.21459387  0.37506391  0.92619549     0.35450
C1024       C  0.20289270  0.40102114  0.93341958    -0.06730
C1025       C  0.18370143  0.40151128  0.95314514    -0.33700
C1026       C  0.17370190  0.37623299  0.96304202     0.35360
H1027       H  0.21228235  0.32983425  0.92880281     0.15730
O1028       O  0.23534327  0.37434806  0.90880481    -0.61200
H1029       H  0.17500800  0.42129514  0.95929765     0.15740
O1030       O  0.15361330  0.37741229  0.98118945    -0.61290
H1031       H  0.16201126  0.37610206  0.99904976     0.42740
H1032       H  0.22815855  0.36732046  0.89151800     0.42690
C1033       C  0.19663433  0.09716427  0.93423624    -0.06370
C1034       C  0.17275266  0.09658485  0.94732972    -0.33800
C1035       C  0.16131838  0.12164186  0.95597639     0.35450
C1036       C  0.17413605  0.14795335  0.95184413    -0.06730
C1037       C  0.19933490  0.14806289  0.94115308    -0.33700
C1038       C  0.21052964  0.12284573  0.93210939     0.35360
H1039       H  0.16200608  0.07695630  0.94907422     0.15730
O1040       O  0.13733475  0.12002451  0.96808583    -0.61200
H1041       H  0.20979368  0.16774451  0.93855054     0.15740
O1042       O  0.23480569  0.12347189  0.92053544    -0.61290
H1043       H  0.23208596  0.13093020  0.90219855     0.42740
H1044       H  0.12461955  0.11793646  0.95318149     0.42690
C1045       C  0.18866687  0.40306532  0.58410497    -0.06370
C1046       C  0.17547232  0.38374679  0.60063538    -0.33800
C1047       C  0.17085897  0.35616171  0.59235695     0.35450
C1048       C  0.17843200  0.34737248  0.56670386    -0.06730
C1049       C  0.19173994  0.36637507  0.54989668    -0.33700
C1050       C  0.19713485  0.39411418  0.55856401     0.35360
H1051       H  0.16917170  0.38990725  0.62059009     0.15730
O1052       O  0.15760570  0.33822595  0.60904057    -0.61200
H1053       H  0.19695563  0.36004795  0.52967503     0.15740
O1054       O  0.21121058  0.41181168  0.54237993    -0.61290
H1055       H  0.19824888  0.42015732  0.53001172     0.42740
H1056       H  0.17130868  0.32768660  0.61873840     0.42690
C1057       C  0.19644684  0.10187430  0.58002332    -0.06370
C1058       C  0.17746674  0.10053633  0.56001862    -0.33800
C1059       C  0.16697847  0.12539467  0.54967377     0.35450
C1060       C  0.17567149  0.15200444  0.55932575    -0.06730
C1061       C  0.19685893  0.15325307  0.57684788    -0.33700
C1062       C  0.20724099  0.12839597  0.58730605     0.35360
H1063       H  0.16959478  0.08035314  0.55363157     0.15730
O1064       O  0.14805263  0.12348677  0.53025302    -0.61200
H1065       H  0.20434948  0.17344509  0.58368369     0.15740
O1066       O  0.22778540  0.13020035  0.60491557    -0.61290
H1067       H  0.22021057  0.13700519  0.62207151     0.42740
H1068       H  0.13194330  0.11771772  0.53980229     0.42690
C1069       C  0.06530260  0.30500441  0.89958282    -0.06370
C1070       C  0.05130838  0.28684431  0.88232884    -0.33800
C1071       C  0.05189865  0.29061066  0.85428317     0.35450
C1072       C  0.06512306  0.31391619  0.84337262    -0.06730
C1073       C  0.08151594  0.32979866  0.86019287    -0.33700
C1074       C  0.08165591  0.32567920  0.88792497     0.35360
H1075       H  0.03919678  0.27042506  0.89064396     0.15730
O1076       O  0.03749728  0.27310422  0.83805196    -0.61200
H1077       H  0.09210657  0.34768846  0.85214936     0.15740
O1078       O  0.09682222  0.34322668  0.90344743    -0.61290
H1079       H  0.08598366  0.36015262  0.90676764     0.42740
H1080       H  0.05044931  0.26111681  0.82868309     0.42690
C1081       C  0.06107863  0.30700635  0.60281510    -0.06370
C1082       C  0.04722877  0.28834417  0.61960488    -0.33800
C1083       C  0.04682563  0.29241850  0.64774893     0.35450
C1084       C  0.05944795  0.31607458  0.65923211    -0.06730
C1085       C  0.07556405  0.33249127  0.64279305    -0.33700
C1086       C  0.07648183  0.32825117  0.61508013     0.35360
H1087       H  0.03616814  0.27106070  0.61091239     0.15730
O1088       O  0.03220893  0.27469939  0.66339077    -0.61200
H1089       H  0.08569719  0.35060161  0.65119252     0.15740
O1090       O  0.09102927  0.34664747  0.60008029    -0.61290
H1091       H  0.10831561  0.33760674  0.59826244     0.42740
H1092       H  0.04430008  0.25950197  0.66875887     0.42690
C1093       C  0.05940515  0.18655359  0.84655430    -0.06370
C1094       C  0.07943015  0.17577681  0.86256861    -0.33800
C1095       C  0.08030609  0.18141258  0.89019371     0.35450
C1096       C  0.06083685  0.19821951  0.90238654    -0.06730
C1097       C  0.04207643  0.21075156  0.88589511    -0.33700
C1098       C  0.04103944  0.20480822  0.85831458     0.35360
H1099       H  0.09332299  0.16111793  0.85399691     0.15730
O1100       O  0.09998629  0.16977233  0.90506479    -0.61200
H1101       H  0.02732736  0.22400687  0.89465425     0.15740
O1102       O  0.02037237  0.21452947  0.84365603    -0.61290
H1103       H  0.00832833  0.19820649  0.84201060     0.42740
H1104       H  0.09415327  0.15025278  0.90891831     0.42690
C1105       C  0.04967123  0.20668279  0.60311673    -0.06370
C1106       C  0.02619428  0.19650086  0.61337468    -0.33800
C1107       C  0.02442992  0.18859527  0.64029366     0.35450
C1108       C  0.04581868  0.19258203  0.65789938    -0.06730
C1109       C  0.06869538  0.20497296  0.64805011    -0.33700
C1110       C  0.07075781  0.21189446  0.62073083     0.35360
H1111       H  0.00993242  0.19226308  0.60001840     0.15730
O1112       O  0.00242942  0.17469945  0.64877411    -0.61200
H1113       H  0.08553007  0.20737149  0.66101424     0.15740
O1114       O  0.09387987  0.22239079  0.61114907    -0.61290
H1115       H  0.09163247  0.24313882  0.61100895     0.42740
H1116       H  0.00363504  0.15541752  0.64108138     0.42690
N1117       N  0.15141858  0.71668350  0.03484460    -0.07020
N1118       N  0.17140034  0.70282394  0.04532554    -0.59140
N1119       N  0.13084583  0.69883719  0.47534020    -0.06700
N1120       N  0.13518478  0.67437504  0.46409380    -0.61270
N1121       N  0.15214178  0.71454839  0.47558948    -0.06300
N1122       N  0.17174854  0.69968675  0.46533753    -0.59120
N1123       N  0.13039315  0.70051293  0.03553652    -0.05980
N1124       N  0.13553210  0.67634832  0.04695701    -0.61620
C1125       C  0.16096435  0.67773181  0.05284330     0.95150
C1126       C  0.16054875  0.67463849  0.45816253     0.94930
N1127       N  0.05435293  0.72154426  0.47014907    -0.07210
N1128       N  0.04613476  0.72280106  0.44493183    -0.59720
N1129       N  0.07044132  0.70503192  0.03582962    -0.05330
N1130       N  0.07214565  0.69506881  0.06042921    -0.60970
N1131       N  0.05173700  0.72371219  0.03418390    -0.07240
N1132       N  0.04005131  0.72651581  0.05774252    -0.59990
N1133       N  0.07199900  0.70179820  0.47243376    -0.04970
N1134       N  0.07599250  0.68927235  0.44913655    -0.61060
Mn1135     Mn  0.10029707  0.70142397  0.00499058     1.18440
C1136       C  0.05983360  0.70240180  0.43203763     0.97230
C1137       C  0.05297934  0.70845626  0.07381379     0.97900
N1138       N  0.15500646  0.78564176  0.47424262    -0.07260
N1139       N  0.17615923  0.79882255  0.46518505    -0.63570
N1140       N  0.13402982  0.80489775  0.03265559    -0.06060
N1141       N  0.13972423  0.82807754  0.04584295    -0.64240
N1142       N  0.15357122  0.78690910  0.03347500    -0.06770
N1143       N  0.17339710  0.79841183  0.04683929    -0.63830
N1144       N  0.13485916  0.80279407  0.47247222    -0.05660
N1145       N  0.14156745  0.82656315  0.46121503    -0.64520
Mn1146     Mn  0.15391760  0.75093458  0.50447112     1.10660
C1147       C  0.16718316  0.82431023  0.45706919     0.98460
C1148       C  0.16397601  0.82384741  0.05474801     0.98530
N1149       N  0.05509499  0.78732195  0.03360692    -0.06770
N1150       N  0.04596080  0.78546432  0.05851834    -0.62150
N1151       N  0.07572821  0.80437165  0.46979114    -0.06090
N1152       N  0.08049027  0.81528380  0.44607120    -0.58880
N1153       N  0.05691136  0.78565163  0.46829935    -0.07400
N1154       N  0.04877503  0.78336267  0.44303270    -0.61710
N1155       N  0.07424578  0.80573625  0.03295464    -0.06390
N1156       N  0.07818139  0.81680134  0.05692321    -0.58900
Mn1157     Mn  0.05286439  0.75471630  0.00136081     1.20190
Mn1158     Mn  0.10407135  0.80468932  0.50199805     1.10090
Cl1159     Cl  0.10334979  0.75292505  0.00323584    -0.86870
C1160       C  0.06050333  0.80418591  0.07287136     0.95460
C1161       C  0.06364573  0.80223925  0.42938852     0.95260
N1162       N  0.44321293  0.71984268  0.03801415    -0.07020
N1163       N  0.45186948  0.72261356  0.06304175    -0.59140
N1164       N  0.42635804  0.69905932  0.47389396    -0.06700
N1165       N  0.42290004  0.68740266  0.45006331    -0.61270
N1166       N  0.44474735  0.71830655  0.47300896    -0.06300
N1167       N  0.45389495  0.72016160  0.44816436    -0.59120
N1168       N  0.42437435  0.70105474  0.03721814    -0.05980
N1169       N  0.42005448  0.69070213  0.06128880    -0.61620
C1170       C  0.43724485  0.70416789  0.07739005     0.95150
C1171       C  0.44012662  0.70059406  0.43403284     0.94930
N1172       N  0.34711108  0.71601619  0.47206370    -0.07210
N1173       N  0.32833245  0.70353866  0.45781313    -0.59720
N1174       N  0.36434064  0.69971082  0.03296722    -0.05330
N1175       N  0.35767305  0.67622103  0.04492086    -0.60970
N1176       N  0.34440657  0.71721679  0.03175810    -0.07240
N1177       N  0.32360294  0.70512012  0.04273492    -0.59990
N1178       N  0.36750982  0.69922214  0.47303177    -0.04970
N1179       N  0.36368779  0.67635815  0.45882209    -0.61060
Mn1180     Mn  0.39626063  0.69949183  0.00450090     1.18440
C1181       C  0.33952528  0.67908591  0.44925460     0.97230
C1182       C  0.33251253  0.67971681  0.05109710     0.97900
N1183       N  0.44597110  0.78249153  0.47252795    -0.07260
N1184       N  0.45598081  0.78016420  0.44805775    -0.63570
N1185       N  0.42554022  0.80196536  0.03626643    -0.06060
N1186       N  0.42194787  0.81280270  0.06043290    -0.64240
N1187       N  0.44462183  0.78363541  0.03652898    -0.06770
N1188       N  0.45458262  0.78195396  0.06097157    -0.63830
N1189       N  0.42766666  0.80170004  0.47273720    -0.05660
N1190       N  0.42491002  0.81269988  0.44868556    -0.64520
Mn1191     Mn  0.44623052  0.75097273  0.00495463     1.10660
C1192       C  0.44260807  0.79924705  0.43336909     0.98460
C1193       C  0.44023872  0.80025129  0.07564925     0.98530
N1194       N  0.34500503  0.78772001  0.03092266    -0.06770
N1195       N  0.32428412  0.80114283  0.04052428    -0.62150
N1196       N  0.36847089  0.80335325  0.47198711    -0.06090
N1197       N  0.36471936  0.82633089  0.45819030    -0.58880
N1198       N  0.34761259  0.78697990  0.47152150    -0.07400
N1199       N  0.32869058  0.79989110  0.45811086    -0.61710
N1200       N  0.36549809  0.80468421  0.03202556    -0.06390
N1201       N  0.35926998  0.82902719  0.04275355    -0.58900
Mn1202     Mn  0.34501934  0.75193460  0.00151392     1.20190
Mn1203     Mn  0.39740471  0.80315642  0.00347221     1.10090
Cl1204     Cl  0.39563863  0.75141287  0.00371062    -0.86870
C1205       C  0.33374063  0.82684085  0.04790463     0.95460
C1206       C  0.34014660  0.82417132  0.44946251     0.95260
N1207       N  0.21969140  0.53763725  0.10667499    -0.07020
N1208       N  0.20936653  0.55090187  0.08581512    -0.59140
N1209       N  0.27827342  0.55427618  0.12750663    -0.06700
N1210       N  0.28945495  0.57841519  0.12209217    -0.61270
N1211       N  0.27724723  0.53793801  0.10594973    -0.06300
N1212       N  0.28701084  0.55200161  0.08516334    -0.59120
N1213       N  0.21987560  0.55476844  0.12769326    -0.05980
N1214       N  0.20923812  0.57900039  0.12175227    -0.61620
C1215       C  0.20286943  0.57663583  0.09579635     0.95150
C1216       C  0.29471141  0.57721005  0.09583549     0.94930
N1217       N  0.28109856  0.53318123  0.20731251    -0.07210
N1218       N  0.30518863  0.53110975  0.21676024    -0.59720
N1219       N  0.21874203  0.55291782  0.18951513    -0.05330
N1220       N  0.19570048  0.56498993  0.18713444    -0.60970
N1221       N  0.21813122  0.53318613  0.20788431    -0.07240
N1222       N  0.19427281  0.53118444  0.21793941    -0.59990
N1223       N  0.28020173  0.55293841  0.18901677    -0.04970
N1224       N  0.30328213  0.56497470  0.18609688    -0.61060
Mn1225     Mn  0.24924811  0.55384037  0.15901375     1.18440
C1226       C  0.31872295  0.55143918  0.20366398     0.97230
C1227       C  0.18060679  0.55151758  0.20514592     0.97900
N1228       N  0.27674918  0.96677484  0.10476587    -0.07260
N1229       N  0.28622210  0.95354784  0.08329678    -0.63570
N1230       N  0.21872198  0.95046297  0.12747632    -0.06060
N1231       N  0.20551159  0.92734232  0.12301642    -0.64240
N1232       N  0.21908833  0.96669261  0.10607995    -0.06770
N1233       N  0.20690752  0.95339525  0.08601346    -0.63830
N1234       N  0.27729535  0.94953803  0.12548718    -0.05660
N1235       N  0.28772619  0.92534804  0.11877863    -0.64520
Mn1236     Mn  0.24821132  0.50223629  0.10503189     1.10660
C1237       C  0.29307012  0.92774626  0.09261531     0.98460
C1238       C  0.19811311  0.92904912  0.09738634     0.98530
N1239       N  0.21861228  0.96848144  0.20808343    -0.06770
N1240       N  0.19566313  0.96843514  0.22023699    -0.62150
N1241       N  0.27993516  0.95028308  0.18721198    -0.06090
N1242       N  0.30286569  0.93817771  0.18432269    -0.58880
N1243       N  0.28045026  0.96874022  0.20691848    -0.07400
N1244       N  0.30394280  0.96942867  0.21791604    -0.61710
N1245       N  0.21864394  0.94981556  0.18859839    -0.06390
N1246       N  0.19589448  0.93676001  0.18707540    -0.58900
Mn1247     Mn  0.24955670  0.00105903  0.20914465     1.20190
Mn1248     Mn  0.24873528  0.94994118  0.15760473     1.10090
Cl1249     Cl  0.24895633  0.00177312  0.15742117    -0.86870
C1250       C  0.18167038  0.94828183  0.20709260     0.95460
C1251       C  0.31769054  0.95010109  0.20368483     0.95260
N1252       N  0.21783522  0.53300437  0.30307704    -0.07020
N1253       N  0.19452236  0.53206674  0.29167369    -0.59140
N1254       N  0.27920984  0.55356035  0.32091989    -0.06700
N1255       N  0.30184015  0.56681143  0.32243739    -0.61270
N1256       N  0.27957757  0.53447585  0.30179314    -0.06300
N1257       N  0.30262723  0.53444659  0.28989398    -0.59120
N1258       N  0.21797277  0.55179490  0.32252325    -0.05980
N1259       N  0.19492757  0.56387898  0.32475567    -0.61620
C1260       C  0.18039594  0.55163070  0.30526367     0.95150
C1261       C  0.31632170  0.55493478  0.30284861     0.94930
N1262       N  0.28043372  0.53662121  0.40297374    -0.07210
N1263       N  0.29411976  0.54859493  0.42265621    -0.59720
N1264       N  0.22149420  0.55308167  0.38465670    -0.05330
N1265       N  0.21003581  0.57663116  0.39166444    -0.60970
N1266       N  0.22247906  0.53545686  0.40505741    -0.07240
N1267       N  0.21190185  0.54747380  0.42654217    -0.59990
N1268       N  0.27977848  0.55373251  0.38221489    -0.04970
N1269       N  0.29357341  0.57652568  0.38675783    -0.61060
Mn1270     Mn  0.24946688  0.55329821  0.35214494     1.18440
C1271       C  0.30262909  0.57314889  0.41168547     0.97230
C1272       C  0.20408088  0.57300296  0.41755551     0.97900
N1273       N  0.28160467  0.96983219  0.30280176    -0.07260
N1274       N  0.30576781  0.97237160  0.29350350    -0.63570
N1275       N  0.21926494  0.94916308  0.32217199    -0.06060
N1276       N  0.19623871  0.93692813  0.32506092    -0.64240
N1277       N  0.21849283  0.96836259  0.30333392    -0.06770
N1278       N  0.19463726  0.96965355  0.29324729    -0.63830
N1279       N  0.28078372  0.94983842  0.32089023    -0.05660
N1280       N  0.30389883  0.93809828  0.32374538    -0.64520
Mn1281     Mn  0.24940868  0.50121219  0.30109907     1.10660
C1282       C  0.31937035  0.95203290  0.30643999     0.98460
C1283       C  0.18110761  0.94952646  0.30659210     0.98530
N1284       N  0.22344017  0.96534231  0.40493493    -0.06770
N1285       N  0.21460156  0.95207633  0.42651668    -0.62150
N1286       N  0.28067502  0.94900146  0.38211314    -0.06090
N1287       N  0.29387807  0.92605961  0.38704155    -0.59300
N1288       N  0.28097528  0.96623681  0.40300274    -0.07400
N1289       N  0.29378762  0.95423422  0.42307796    -0.61710
N1290       N  0.22243472  0.94806157  0.38403545    -0.06390
N1291       N  0.21243246  0.92368063  0.39083652    -0.58900
Mn1292     Mn  0.25180298  0.50100668  0.40475940     1.20190
Mn1293     Mn  0.25061582  0.94882461  0.35165996     1.10090
Cl1294     Cl  0.25025428  0.50110610  0.35266282    -0.86870
C1295       C  0.20775743  0.92617418  0.41714535     0.95460
C1296       C  0.30212133  0.92949029  0.41230733     0.95260
N1297       N  0.02861476  0.66457895  0.22030887    -0.07020
N1298       N  0.03765321  0.68697814  0.20728731    -0.59140
N1299       N  0.47054317  0.64348647  0.20402655    -0.06700
N1300       N  0.45688902  0.64964463  0.18261223    -0.61270
N1301       N  0.47086045  0.66487997  0.22108258    -0.06300
N1302       N  0.45827543  0.68659516  0.21041585    -0.59120
N1303       N  0.02999619  0.64238170  0.20429774    -0.05980
N1304       N  0.04136924  0.64890160  0.18158936    -0.61620
C1305       C  0.04603165  0.67664614  0.18326124     0.95150
C1306       C  0.44909488  0.67630465  0.18664071     0.94930
N1307       N  0.46826747  0.55735557  0.21935264    -0.07210
N1308       N  0.44532542  0.54455167  0.21859583    -0.59720
N1309       N  0.03040419  0.57772963  0.20337457    -0.05330
N1310       N  0.05388636  0.58040708  0.19275464    -0.60970
N1311       N  0.02988188  0.55661379  0.22028306    -0.07240
N1312       N  0.05301521  0.54437439  0.22121690    -0.59990
N1313       N  0.46851401  0.57852201  0.20253593    -0.04970
N1314       N  0.44570525  0.58079302  0.19036066    -0.61060
Mn1315     Mn  0.99984575  0.61008609  0.20330212     1.18440
C1316       C  0.43145482  0.55916979  0.20018646     0.97230
C1317       C  0.06777566  0.55928220  0.20375444     0.97900
N1318       N  0.47116591  0.66281755  0.28843276    -0.07260
N1319       N  0.45847018  0.68371804  0.30060039    -0.63570
N1320       N  0.02986098  0.63937991  0.30312202    -0.06060
N1321       N  0.04401267  0.64418236  0.32463740    -0.64240
N1322       N  0.02963791  0.66167208  0.28739413    -0.06770
N1323       N  0.04294556  0.68245826  0.29905171    -0.63830
N1324       N  0.47060640  0.64033799  0.30387538    -0.05660
N1325       N  0.45681196  0.64501443  0.32559765    -0.64520
Mn1326     Mn  0.50004786  0.66440435  0.25444826     1.10660
C1327       C  0.44898845  0.67184110  0.32348516     0.98460
C1328       C  0.05235587  0.67086784  0.32199857     0.98530
N1329       N  0.02939298  0.55481165  0.28169364    -0.06770
N1330       N  0.05246074  0.54259424  0.28006304    -0.62150
N1331       N  0.46793261  0.57570855  0.30022058    -0.06090
N1332       N  0.44449588  0.57854666  0.31097613    -0.58880
N1333       N  0.46758650  0.55620357  0.28139439    -0.07400
N1334       N  0.44388302  0.54543621  0.27917570    -0.61710
N1335       N  0.02974458  0.57433120  0.30046508    -0.06390
N1336       N  0.05296815  0.57562043  0.31196022    -0.58900
Mn1337     Mn  0.99868888  0.55473723  0.25071337     1.20190
Mn1338     Mn  0.99956072  0.60696212  0.30237941     1.10090
Cl1339     Cl  0.99947480  0.60930786  0.25272183    -0.86870
C1340       C  0.06702833  0.55557166  0.29918772     0.95460
C1341       C  0.42957702  0.55942216  0.29778323     0.95260
N1342       N  0.03031278  0.94632798  0.22657780    -0.07020
N1343       N  0.05402184  0.95718623  0.22886117    -0.59140
N1344       N  0.46832011  0.92657164  0.20826032    -0.06700
N1345       N  0.44499381  0.92426047  0.19712872    -0.61270
N1346       N  0.46824951  0.94591899  0.22721083    -0.06300
N1347       N  0.44473413  0.95694198  0.22939651    -0.59120
N1348       N  0.03006847  0.92675038  0.20780939    -0.05980
N1349       N  0.05349804  0.92409058  0.19705016    -0.61620
C1350       C  0.06831966  0.94332626  0.21018895     0.95150
C1351       C  0.43041742  0.94340388  0.21040714     0.94930
N1352       N  0.47015976  0.83949999  0.22118611    -0.07210
N1353       N  0.45808917  0.81813052  0.20907041    -0.59720
N1354       N  0.02845722  0.86181559  0.20408280    -0.05330
N1355       N  0.04167631  0.85717119  0.18199307    -0.60970
N1356       N  0.02840761  0.83931804  0.21951598    -0.07240
N1357       N  0.04084939  0.81841975  0.20699489    -0.59990
N1358       N  0.46917787  0.86185751  0.20559336    -0.04970
N1359       N  0.45556387  0.85645886  0.18383079    -0.61060
Mn1360     Mn  0.49901592  0.89479482  0.20603432     1.18440
C1361       C  0.44844313  0.82932067  0.18604614     0.97230
C1362       C  0.04957954  0.83032659  0.18381355     0.97900
N1363       N  0.46898861  0.94516706  0.28907093    -0.07260
N1364       N  0.44612062  0.95799592  0.28979961    -0.63570
N1365       N  0.03107845  0.92477524  0.30506644    -0.06060
N1366       N  0.05446140  0.92238573  0.31595029    -0.64240
N1367       N  0.03074420  0.94569219  0.28795642    -0.06770
N1368       N  0.05392365  0.95806031  0.28707345    -0.63830
N1369       N  0.46914169  0.92413157  0.30605604    -0.05660
N1370       N  0.44636465  0.92198738  0.31834067    -0.64520
Mn1371     Mn  0.49950460  0.94730726  0.25761467     1.10660
C1372       C  0.43223381  0.94353248  0.30840828     0.98460
C1373       C  0.06841786  0.94358792  0.30497631     0.98530
N1374       N  0.02996573  0.83846563  0.28681312    -0.06770
N1375       N  0.04424638  0.81775366  0.29702091    -0.62150
N1376       N  0.47083707  0.85929731  0.30467509    -0.06090
N1377       N  0.45766769  0.85307050  0.32642850    -0.58880
N1378       N  0.47150258  0.83761102  0.28800371    -0.07400
N1379       N  0.45963491  0.81573940  0.29931057    -0.61710
N1380       N  0.03017288  0.86011143  0.30354912    -0.06390
N1381       N  0.04526216  0.85521708  0.32418626    -0.58900
Mn1382     Mn  0.50005660  0.83768937  0.25391306     1.20190
Mn1383     Mn  0.50025546  0.89242966  0.30521472     1.10090
Cl1384     Cl  0.49970576  0.89279678  0.25568365    -0.86870
C1385       C  0.05422246  0.82904432  0.32009332     0.95460
C1386       C  0.45044751  0.82610191  0.32300856     0.95260
C1387       C  0.40345500  0.94595225  0.31154480    -0.06370
C1388       C  0.38784662  0.92152741  0.31123967    -0.33800
C1389       C  0.36053792  0.92331863  0.30948999     0.35450
C1390       C  0.34831619  0.94977979  0.30733398    -0.06730
C1391       C  0.36385084  0.97419713  0.30896529    -0.33700
C1392       C  0.39113540  0.97237640  0.31150961     0.35360
H1393       H  0.39686874  0.90092552  0.31133520     0.15730
O1394       O  0.34601499  0.89898825  0.30876483    -0.61200
H1395       H  0.35472116  0.99468060  0.30897249     0.15740
O1396       O  0.40577361  0.99649989  0.31337648    -0.61290
H1397       H  0.40577181  0.50154138  0.33270980     0.42740
H1398       H  0.34378315  0.89351772  0.32781350     0.42690
C1399       C  0.09721403  0.94486084  0.30593026    -0.06370
C1400       C  0.10991833  0.96752073  0.31855439    -0.33800
C1401       C  0.13724666  0.96869265  0.31960731     0.35450
C1402       C  0.15228458  0.94760795  0.30693303    -0.06730
C1403       C  0.13956247  0.92470174  0.29470366    -0.33700
C1404       C  0.11221615  0.92314293  0.29430564     0.35360
H1405       H  0.09862416  0.98401421  0.32810166     0.15730
O1406       O  0.14896833  0.98961689  0.33445470    -0.61200
H1407       H  0.15083876  0.90823771  0.28509765     0.15740
O1408       O  0.10028106  0.90088344  0.28152638    -0.61290
H1409       H  0.09833245  0.88616976  0.29544556     0.42740
H1410       H  0.15881802  0.00108291  0.32142022     0.42690
C1411       C  0.34504398  0.55861769  0.30053902    -0.06370
C1412       C  0.35845312  0.54356498  0.28070886    -0.33800
C1413       C  0.38565102  0.54349885  0.27996659     0.35450
C1414       C  0.40045922  0.55875885  0.29904365    -0.06730
C1415       C  0.38704894  0.57471261  0.31841116    -0.33700
C1416       C  0.35964250  0.57487126  0.31918188     0.35360
H1417       H  0.34785792  0.53106711  0.26601010     0.15730
O1418       O  0.39754036  0.52817352  0.26034677    -0.61200
H1419       H  0.39778496  0.58706990  0.33308739     0.15740
O1420       O  0.34745530  0.59041373  0.33871391    -0.61290
H1421       H  0.34559997  0.60953771  0.33104704     0.42740
H1422       H  0.40388012  0.54259484  0.24776348     0.42690
C1423       C  0.09597609  0.55343242  0.30127418    -0.06370
C1424       C  0.10918290  0.56723694  0.32232952    -0.33800
C1425       C  0.13654544  0.56750650  0.32363848     0.35450
C1426       C  0.15144565  0.55417096  0.30337256    -0.06730
C1427       C  0.13820167  0.54072976  0.28221711    -0.33700
C1428       C  0.11090302  0.53967840  0.28136502     0.35360
H1429       H  0.09826254  0.57788459  0.33796142     0.15730
O1430       O  0.14836264  0.58015863  0.34529838    -0.61200
H1431       H  0.14914199  0.53072913  0.26633874     0.15740
O1432       O  0.09912876  0.52544255  0.26065570    -0.61290
H1433       H  0.09346287  0.50727633  0.26848555     0.42740
H1434       H  0.15010418  0.60030333  0.34040092     0.42690
C1435       C  0.34639578  0.94692301  0.20529136    -0.06370
C1436       C  0.35922562  0.95362379  0.22928674    -0.33800
C1437       C  0.38638348  0.95222895  0.23103346     0.35450
C1438       C  0.40150876  0.94458160  0.20859174    -0.06730
C1439       C  0.38870956  0.93738868  0.18461593    -0.33700
C1440       C  0.36141410  0.93865291  0.18277062     0.35360
H1441       H  0.34815396  0.95983840  0.24685014     0.15730
O1442       O  0.39794196  0.95723726  0.25522695    -0.61200
H1443       H  0.39990311  0.93124644  0.16711501     0.15740
O1444       O  0.34976351  0.93235350  0.15867394    -0.61290
H1445       H  0.34880059  0.95053778  0.14901271     0.42740
H1446       H  0.40261152  0.97745279  0.25510836     0.42690
C1447       C  0.09736597  0.94393332  0.20921893    -0.06370
C1448       C  0.11136706  0.95591102  0.23069103    -0.33800
C1449       C  0.13869014  0.95638600  0.23083658     0.35450
C1450       C  0.15284649  0.94453718  0.20937690    -0.06730
C1451       C  0.13885953  0.93167392  0.18824747    -0.33700
C1452       C  0.11145871  0.93129057  0.18805124     0.35360
H1453       H  0.10109616  0.96488434  0.24759673     0.15730
O1454       O  0.15133452  0.96925385  0.25176958    -0.61200
H1455       H  0.14913117  0.92263157  0.17128874     0.15740
O1456       O  0.09872731  0.91933921  0.16658457    -0.61290
H1457       H  0.09823766  0.89885781  0.17040189     0.42740
H1458       H  0.15365002  0.98905515  0.24616276     0.42690
C1459       C  0.34760417  0.55356394  0.20268052    -0.06370
C1460       C  0.36272669  0.52899617  0.20119629    -0.33800
C1461       C  0.38992067  0.53059008  0.19812861     0.35450
C1462       C  0.40262134  0.55694710  0.19747558    -0.06730
C1463       C  0.38740513  0.58150353  0.19794963    -0.33700
C1464       C  0.36014407  0.57993082  0.20032757     0.35360
H1465       H  0.35336358  0.50852198  0.20174556     0.15730
O1466       O  0.40397459  0.50627732  0.19556792    -0.61200
H1467       H  0.39672114  0.60203550  0.19747965     0.15740
O1468       O  0.34595446  0.60435459  0.20078121    -0.61290
H1469       H  0.34432557  0.60941921  0.22004704     0.42740
H1470       H  0.41127624  0.00279991  0.21364933     0.42690
C1471       C  0.09665185  0.55758710  0.20262103    -0.06370
C1472       C  0.10889750  0.53130497  0.20063810    -0.33800
C1473       C  0.13620017  0.52936902  0.20087936     0.35450
C1474       C  0.15173810  0.55353704  0.20492855    -0.06730
C1475       C  0.13957954  0.57992051  0.20606602    -0.33700
C1476       C  0.11229224  0.58210387  0.20466050     0.35360
H1477       H  0.09729018  0.51230905  0.19828615     0.15730
O1478       O  0.14764237  0.50400353  0.19550891    -0.61200
H1479       H  0.15126590  0.59888645  0.20814587     0.15740
O1480       O  0.10108320  0.60822786  0.20654039    -0.61290
H1481       H  0.10089059  0.61553788  0.18793098     0.42740
H1482       H  0.14929763  0.00311108  0.17567517     0.42690
C1483       C  0.29851649  0.90238438  0.07626252    -0.06370
C1484       C  0.31580967  0.90358670  0.05469493    -0.33800
C1485       C  0.32572254  0.87862629  0.04362123     0.35450
C1486       C  0.31825675  0.85213299  0.05422297    -0.06730
C1487       C  0.29850349  0.85092946  0.07339075    -0.33700
C1488       C  0.28845447  0.87582998  0.08429665     0.35360
H1489       H  0.32296783  0.92373754  0.04762804     0.15730
O1490       O  0.34314590  0.88028018  0.02277030    -0.61200
H1491       H  0.29208803  0.83079030  0.08119177     0.15740
O1492       O  0.26968743  0.87389941  0.10382574    -0.61290
H1493       H  0.25293727  0.87723706  0.09442956     0.42740
H1494       H  0.35978655  0.88673325  0.03094222     0.42690
C1495       C  0.30041826  0.60361890  0.08113607    -0.06370
C1496       C  0.29559467  0.62952015  0.09442230    -0.33800
C1497       C  0.30345397  0.65517322  0.08342653     0.35450
C1498       C  0.31656375  0.65532948  0.05889555    -0.06730
C1499       C  0.31950433  0.62987491  0.04444777    -0.33700
C1500       C  0.31134576  0.60408959  0.05533487     0.35360
H1501       H  0.28652480  0.62998072  0.11404711     0.15730
O1502       O  0.30063524  0.67953228  0.09806733    -0.61200
H1503       H  0.32957718  0.62983210  0.02532345     0.15740
O1504       O  0.31540085  0.57958027  0.04126300    -0.61290
H1505       H  0.33328598  0.57359861  0.04610950     0.42740
H1506       H  0.28342290  0.68710012  0.09271812     0.42690
C1507       C  0.32759833  0.84954357  0.43859648    -0.06370
C1508       C  0.34314574  0.86650688  0.42201961    -0.33800
C1509       C  0.33626883  0.89407321  0.41615407     0.35450
C1510       C  0.31312579  0.90535884  0.42640918    -0.06730
C1511       C  0.29711437  0.88856316  0.44285984    -0.33700
C1512       C  0.30444602  0.86082725  0.44933382     0.35360
H1513       H  0.36122854  0.85852941  0.41400163     0.15730
O1514       O  0.35171154  0.90949179  0.39914236    -0.61200
H1515       H  0.27853295  0.89656424  0.44981045     0.15740
O1516       O  0.28915458  0.84522791  0.46629830    -0.61290
H1517       H  0.29564759  0.84971648  0.48459466     0.42740
H1518       H  0.36357239  0.92042907  0.41103299     0.42690
C1519       C  0.31385838  0.59755102  0.42560711    -0.06370
C1520       C  0.29840403  0.61327357  0.44350524    -0.33800
C1521       C  0.30493262  0.64138952  0.44979288     0.35450
C1522       C  0.32685794  0.65402178  0.43771199    -0.06730
C1523       C  0.34204914  0.63811861  0.41983615    -0.33700
C1524       C  0.33588346  0.61017482  0.41402927     0.35360
H1525       H  0.28076954  0.60412563  0.45175194     0.15730
O1526       O  0.29064104  0.65575386  0.46862719    -0.61200
H1527       H  0.35953396  0.64715521  0.41110884     0.15740
O1528       O  0.35102925  0.59552394  0.39612261    -0.61290
H1529       H  0.36416297  0.58571162  0.40724587     0.42740
H1530       H  0.27607402  0.66432400  0.45849500     0.42690
C1531       C  0.44297261  0.80106307  0.40354395    -0.06370
C1532       C  0.46555378  0.79421720  0.38914104    -0.33800
C1533       C  0.46676873  0.79833904  0.36128632     0.35450
C1534       C  0.44531582  0.80947160  0.34730312    -0.06730
C1535       C  0.42223071  0.81463349  0.36136934    -0.33700
C1536       C  0.42088131  0.81044172  0.38914858     0.35360
H1537       H  0.48284691  0.78731874  0.39968103     0.15730
O1538       O  0.48998376  0.79443712  0.34832851    -0.61200
H1539       H  0.40585070  0.82419763  0.35118661     0.15740
O1540       O  0.39812182  0.81683250  0.40212827    -0.61290
H1541       H  0.39983553  0.83709460  0.40676184     0.42740
H1542       H  0.49925610  0.81277310  0.34987251     0.42690
C1543       C  0.44131378  0.80254108  0.10525519    -0.06370
C1544       C  0.46541822  0.80107478  0.11830176    -0.33800
C1545       C  0.46732879  0.80709643  0.14576056     0.35450
C1546       C  0.44489775  0.81328768  0.16094336    -0.06730
C1547       C  0.42052173  0.81278440  0.14830138    -0.33700
C1548       C  0.41857949  0.80726105  0.12065783     0.35360
H1549       H  0.48306712  0.79744874  0.10685504     0.15730
O1550       O  0.49149983  0.81012472  0.15708822    -0.61200
H1551       H  0.40319755  0.81850026  0.15947569     0.15740
O1552       O  0.39446648  0.80758139  0.10876299    -0.61290
H1553       H  0.38883956  0.78756508  0.10803870     0.42740
H1554       H  0.49745967  0.82929883  0.15204603     0.42690
C1555       C  0.43956634  0.69745906  0.40416927    -0.06370
C1556       C  0.42198309  0.67810713  0.39253435    -0.33800
C1557       C  0.42232550  0.67246027  0.36491633     0.35450
C1558       C  0.44003275  0.68662069  0.34805709    -0.06730
C1559       C  0.45530699  0.70844684  0.35904522    -0.33700
C1560       C  0.45567959  0.71341272  0.38694134     0.35360
H1561       H  0.40867604  0.66616744  0.40499580     0.15730
O1562       O  0.40623589  0.65183281  0.35466357    -0.61200
H1563       H  0.46863572  0.71999981  0.34635103     0.15740
O1564       O  0.47269682  0.73303074  0.39710551    -0.61290
H1565       H  0.48594581  0.72207468  0.40697587     0.42740
H1566       H  0.41395780  0.63371297  0.36041222     0.42690
C1567       C  0.43662233  0.70196588  0.10732905    -0.06370
C1568       C  0.45307548  0.71858844  0.12378160    -0.33800
C1569       C  0.45413984  0.71420506  0.15178443     0.35450
C1570       C  0.43924236  0.69238136  0.16342574    -0.06730
C1571       C  0.42068819  0.67842946  0.14751209    -0.33700
C1572       C  0.41907544  0.68315337  0.11994323     0.35360
H1573       H  0.46571703  0.73431390  0.11488763     0.15730
O1574       O  0.47036310  0.73063560  0.16730759    -0.61200
H1575       H  0.40894238  0.66169580  0.15609887     0.15740
O1576       O  0.40138178  0.66760788  0.10537860    -0.61290
H1577       H  0.38508199  0.67877703  0.10575307     0.42740
H1578       H  0.48682473  0.72002489  0.16906145     0.42690
C1579       C  0.18285534  0.85000645  0.45288340    -0.06370
C1580       C  0.20451740  0.84964276  0.43600321    -0.33800
C1581       C  0.21461634  0.87503784  0.42620139     0.35450
C1582       C  0.20292844  0.90099370  0.43345085    -0.06730
C1583       C  0.18374205  0.90147619  0.45318144    -0.33700
C1584       C  0.17373443  0.87619446  0.46306092     0.35360
H1585       H  0.21228935  0.82980663  0.42877649     0.15730
O1586       O  0.23535805  0.87432842  0.40880081    -0.61200
H1587       H  0.17505747  0.92125902  0.45935071     0.15740
O1588       O  0.15364644  0.87736822  0.48120944    -0.61290
H1589       H  0.16204313  0.87603365  0.49906835     0.42740
H1590       H  0.22816208  0.86732532  0.39151012     0.42690
C1591       C  0.19659916  0.59713302  0.43422727    -0.06370
C1592       C  0.17271364  0.59655649  0.44731351    -0.33800
C1593       C  0.16128660  0.62161402  0.45596988     0.35450
C1594       C  0.17411484  0.64792246  0.45185328    -0.06730
C1595       C  0.19931806  0.64802655  0.44117375    -0.33700
C1596       C  0.21050661  0.62280940  0.43212235     0.35360
H1597       H  0.16195825  0.57693199  0.44904282     0.15730
O1598       O  0.13729913  0.62000065  0.46807175    -0.61200
H1599       H  0.20978560  0.66770494  0.43858543     0.15740
O1600       O  0.23478845  0.62343126  0.42056081    -0.61290
H1601       H  0.23208249  0.63091436  0.40223102     0.42740
H1602       H  0.12458720  0.61792624  0.45316286     0.42690
C1603       C  0.18867889  0.90305729  0.08408817    -0.06370
C1604       C  0.17547826  0.88374302  0.10061798    -0.33800
C1605       C  0.17086825  0.85615566  0.09234454     0.35450
C1606       C  0.17845030  0.84735946  0.06669636    -0.06730
C1607       C  0.19176677  0.86635685  0.04989092    -0.33700
C1608       C  0.19715792  0.89409864  0.05855345     0.35360
H1609       H  0.16917007  0.88990882  0.12056868     0.15730
O1610       O  0.15760859  0.83822449  0.10902730    -0.61200
H1611       H  0.19699172  0.86002378  0.02967356     0.15740
O1612       O  0.21124045  0.91179162  0.04237111    -0.61290
H1613       H  0.19828416  0.92013255  0.02999397     0.42740
H1614       H  0.17130788  0.82768721  0.11873271     0.42690
C1615       C  0.19643632  0.60187092  0.08004353    -0.06370
C1616       C  0.17745565  0.60052988  0.06003946    -0.33800
C1617       C  0.16696654  0.62538658  0.04969221     0.35450
C1618       C  0.17565904  0.65199739  0.05934163    -0.06730
C1619       C  0.19684675  0.65324888  0.07686318    -0.33700
C1620       C  0.20722991  0.62839358  0.08732342     0.35360
H1621       H  0.16958462  0.58034566  0.05365419     0.15730
O1622       O  0.14804142  0.62347615  0.03027086    -0.61200
H1623       H  0.20433717  0.67344193  0.08369638     0.15740
O1624       O  0.22777536  0.63020069  0.10493144    -0.61290
H1625       H  0.22020128  0.63700677  0.12208730     0.42740
H1626       H  0.13193167  0.61770875  0.03982027     0.42690
C1627       C  0.06530444  0.80501366  0.39958115    -0.06370
C1628       C  0.05131232  0.78685303  0.38232589    -0.33800
C1629       C  0.05190064  0.79062289  0.35428053     0.35450
C1630       C  0.06512084  0.81393221  0.34337181    -0.06730
C1631       C  0.08151084  0.82981671  0.36019324    -0.33700
C1632       C  0.08165288  0.82569384  0.38792476     0.35360
H1633       H  0.03920446  0.77042999  0.39063984     0.15730
O1634       O  0.03750217  0.77311500  0.33804801    -0.61200
H1635       H  0.09209807  0.84770960  0.35215123     0.15740
O1636       O  0.09681611  0.84324329  0.40344841    -0.61290
H1637       H  0.08597326  0.86016515  0.40677266     0.42740
H1638       H  0.05045602  0.76112826  0.32868107     0.42690
C1639       C  0.06108656  0.80701834  0.10281106    -0.06370
C1640       C  0.04723886  0.78835388  0.11960050    -0.33800
C1641       C  0.04683419  0.79242809  0.14774447     0.35450
C1642       C  0.05945230  0.81608646  0.15922807    -0.06730
C1643       C  0.07556595  0.83250650  0.14278922    -0.33700
C1644       C  0.07648523  0.82826659  0.11507621     0.35360
H1645       H  0.03618163  0.77106802  0.11090776     0.15730
O1646       O  0.03222101  0.77470528  0.16338594    -0.61200
H1647       H  0.08569553  0.85061897  0.15118886     0.15740
O1648       O  0.09102832  0.84666667  0.10007615    -0.61290
H1649       H  0.10831755  0.83763197  0.09826037     0.42740
H1650       H  0.04431756  0.75951577  0.16876139     0.42690
C1651       C  0.05940960  0.68656710  0.34655690    -0.06370
C1652       C  0.07943411  0.67579000  0.36257179    -0.33800
C1653       C  0.08030747  0.68142260  0.39019753     0.35450
C1654       C  0.06083646  0.69822708  0.40239020    -0.06730
C1655       C  0.04207728  0.71076061  0.38589834    -0.33700
C1656       C  0.04104259  0.70482014  0.35831723     0.35360
H1657       H  0.09332804  0.66113242  0.35399997     0.15730
O1658       O  0.09998688  0.66978178  0.40506932    -0.61200
H1659       H  0.02732719  0.72401461  0.39465750     0.15740
O1660       O  0.02037609  0.71454181  0.34365807    -0.61290
H1661       H  0.00833198  0.69821895  0.34201200     0.42740
H1662       H  0.09415472  0.65026125  0.40891978     0.42690
C1663       C  0.04966463  0.70669405  0.10312114    -0.06370
C1664       C  0.02618996  0.69650649  0.11337947    -0.33800
C1665       C  0.02442838  0.68859832  0.14029792     0.35450
C1666       C  0.04581736  0.69258792  0.15790276    -0.06730
C1667       C  0.06869160  0.70498384  0.14805322    -0.33700
C1668       C  0.07075151  0.71190774  0.12073434     0.35360
H1669       H  0.00992828  0.69226622  0.10002365     0.15730
O1670       O  0.00243043  0.67469805  0.14877871    -0.61200
H1671       H  0.08552656  0.70738449  0.16101663     0.15740
O1672       O  0.09387200  0.72240725  0.11115167    -0.61290
H1673       H  0.09162309  0.74315509  0.11101402     0.42740
H1674       H  0.00363868  0.65541681  0.14108484     0.42690
N1675       N  0.15141858  0.71668352  0.53484457    -0.07020
N1676       N  0.17140034  0.70282395  0.54532551    -0.59140
N1677       N  0.13084584  0.69883717  0.97534023    -0.06700
N1678       N  0.13518480  0.67437503  0.96409382    -0.61270
N1679       N  0.15214179  0.71454839  0.97558951    -0.06300
N1680       N  0.17174855  0.69968676  0.96533755    -0.59120
N1681       N  0.13039315  0.70051295  0.53553649    -0.05980
N1682       N  0.13553210  0.67634834  0.54695698    -0.61620
C1683       C  0.16096434  0.67773182  0.55284327     0.95150
C1684       C  0.16054877  0.67463849  0.95816254     0.94930
N1685       N  0.05435295  0.72154422  0.97014905    -0.07210
N1686       N  0.04613479  0.72280099  0.94493181    -0.59720
N1687       N  0.07044133  0.70503197  0.53582961    -0.05330
N1688       N  0.07214566  0.69506885  0.56042920    -0.60970
N1689       N  0.05173703  0.72371225  0.53418392    -0.07240
N1690       N  0.04005135  0.72651587  0.55774253    -0.59990
N1691       N  0.07199901  0.70179815  0.97243377    -0.04970
N1692       N  0.07599251  0.68927226  0.94913658    -0.61060
Mn1693     Mn  0.10029707  0.70142401  0.50499056     1.18440
C1694       C  0.05983361  0.70240170  0.93203764     0.97230
C1695       C  0.05297937  0.70845631  0.57381380     0.97900
N1696       N  0.15500643  0.78564177  0.97424267    -0.07260
N1697       N  0.17615919  0.79882256  0.96518507    -0.63570
N1698       N  0.13402987  0.80489778  0.53265552    -0.06060
N1699       N  0.13972429  0.82807757  0.54584287    -0.64240
N1700       N  0.15357125  0.78690910  0.53347495    -0.06770
N1701       N  0.17339714  0.79841183  0.54683925    -0.63830
N1702       N  0.13485913  0.80279409  0.97247229    -0.05660
N1703       N  0.14156741  0.82656317  0.96121510    -0.64520
Mn1704     Mn  0.15391759  0.75093458  0.00447116     1.10660
C1705       C  0.16718311  0.82431025  0.95706922     0.98460
C1706       C  0.16397606  0.82384742  0.55474795     0.98530
N1707       N  0.05509504  0.78732202  0.53360690    -0.06770
N1708       N  0.04596087  0.78546441  0.55851833    -0.62150
N1709       N  0.07572818  0.80437164  0.96979119    -0.06090
N1710       N  0.08049023  0.81528386  0.94607128    -0.58880
N1711       N  0.05691135  0.78565160  0.96829937    -0.07400
N1712       N  0.04877501  0.78336269  0.94303271    -0.61710
N1713       N  0.07424583  0.80573631  0.53295459    -0.06390
N1714       N  0.07818146  0.81680142  0.55692316    -0.58900
Mn1715     Mn  0.05286440  0.75471635  0.50136082     1.20190
Mn1716     Mn  0.10407131  0.80468929  0.00199811     1.10090
Cl1717     Cl  0.10334981  0.75292508  0.50323582    -0.86870
C1718       C  0.06050340  0.80418601  0.57287132     0.95460
C1719       C  0.06364570  0.80223933  0.92938857     0.95260
N1720       N  0.44321291  0.71984265  0.53801418    -0.07020
N1721       N  0.45186947  0.72261354  0.56304177    -0.59140
N1722       N  0.42635809  0.69905934  0.97389393    -0.06700
N1723       N  0.42290012  0.68740266  0.95006328    -0.61270
N1724       N  0.44474739  0.71830658  0.97300893    -0.06300
N1725       N  0.45389501  0.72016162  0.94816435    -0.59120
N1726       N  0.42437432  0.70105473  0.53721818    -0.05980
N1727       N  0.42005446  0.69070213  0.56128884    -0.61620
C1728       C  0.43724484  0.70416788  0.57739008     0.95150
C1729       C  0.44012670  0.70059407  0.93403283     0.94930
N1730       N  0.34711111  0.71601618  0.97206365    -0.07210
N1731       N  0.32833248  0.70353864  0.95781308    -0.59720
N1732       N  0.36434061  0.69971084  0.53296727    -0.05330
N1733       N  0.35767301  0.67622104  0.54492091    -0.60970
N1734       N  0.34440655  0.71721681  0.53175815    -0.07240
N1735       N  0.32360291  0.70512014  0.54273496    -0.59990
N1736       N  0.36750986  0.69922213  0.97303171    -0.04970
N1737       N  0.36368784  0.67635814  0.95882203    -0.61060
Mn1738     Mn  0.39626059  0.69949182  0.50450095     1.18440
C1739       C  0.33952532  0.67908589  0.94925455     0.97230
C1740       C  0.33251250  0.67971683  0.55109714     0.97900
N1741       N  0.44597111  0.78249157  0.97252793    -0.07260
N1742       N  0.45598083  0.78016425  0.94805772    -0.63570
N1743       N  0.42554023  0.80196534  0.53626645    -0.06060
N1744       N  0.42194788  0.81280268  0.56043292    -0.64240
N1745       N  0.44462183  0.78363538  0.53652900    -0.06770
N1746       N  0.45458263  0.78195393  0.56097159    -0.63830
N1747       N  0.42766668  0.80170008  0.97273718    -0.05660
N1748       N  0.42491005  0.81269994  0.94868555    -0.64520
Mn1749     Mn  0.44623050  0.75097270  0.50495465     1.10660
C1750       C  0.44260811  0.79924713  0.93336908     0.98460
C1751       C  0.44023874  0.80025127  0.57564927     0.98530
N1752       N  0.34500503  0.78772002  0.53092270    -0.06770
N1753       N  0.32428412  0.80114285  0.54052431    -0.62150
N1754       N  0.36847089  0.80335326  0.97198707    -0.06090
N1755       N  0.36471936  0.82633090  0.95819025    -0.58880
N1756       N  0.34761260  0.78697990  0.97152146    -0.07400
N1757       N  0.32869059  0.79989109  0.95811081    -0.61710
N1758       N  0.36549809  0.80468421  0.53202560    -0.06390
N1759       N  0.35926998  0.82902720  0.54275357    -0.58900
Mn1760     Mn  0.34501932  0.75193461  0.50151397     1.20190
Mn1761     Mn  0.39740471  0.80315640  0.50347225     1.10090
Cl1762     Cl  0.39563861  0.75141286  0.50371066    -0.86870
C1763       C  0.33374063  0.82684088  0.54790465     0.95460
C1764       C  0.34014660  0.82417131  0.94946246     0.95260
N1765       N  0.21969135  0.53763725  0.60667497    -0.07020
N1766       N  0.20936648  0.55090187  0.58581510    -0.59140
N1767       N  0.27827338  0.55427618  0.62750660    -0.06700
N1768       N  0.28945490  0.57841520  0.62209214    -0.61270
N1769       N  0.27724719  0.53793802  0.60594969    -0.06300
N1770       N  0.28701079  0.55200162  0.58516331    -0.59120
N1771       N  0.21987556  0.55476844  0.62769325    -0.05980
N1772       N  0.20923808  0.57900039  0.62175225    -0.61620
C1773       C  0.20286938  0.57663583  0.59579634     0.95150
C1774       C  0.29471136  0.57721006  0.59583546     0.94930
N1775       N  0.28109855  0.53318123  0.70731246    -0.07210
N1776       N  0.30518863  0.53110974  0.71676017    -0.59720
N1777       N  0.21874201  0.55291782  0.68951512    -0.05330
N1778       N  0.19570046  0.56498991  0.68713444    -0.60970
N1779       N  0.21813121  0.53318612  0.70788430    -0.07240
N1780       N  0.19427281  0.53118442  0.71793940    -0.59990
N1781       N  0.28020171  0.55293842  0.68901673    -0.04970
N1782       N  0.30328211  0.56497471  0.68609682    -0.61060
Mn1783     Mn  0.24924808  0.55384037  0.65901372     1.18440
C1784       C  0.31872294  0.55143918  0.70366390     0.97230
C1785       C  0.18060678  0.55151756  0.70514591     0.97900
N1786       N  0.27674914  0.96677487  0.60476583    -0.07260
N1787       N  0.28622206  0.95354787  0.58329673    -0.63570
N1788       N  0.21872194  0.95046298  0.62747629    -0.06060
N1789       N  0.20551156  0.92734233  0.62301639    -0.64240
N1790       N  0.21908829  0.96669262  0.60607991    -0.06770
N1791       N  0.20690749  0.95339526  0.58601342    -0.63830
N1792       N  0.27729531  0.94953805  0.62548712    -0.05660
N1793       N  0.28772616  0.92534806  0.61877857    -0.64520
Mn1794     Mn  0.24821127  0.50223630  0.60503186     1.10660
C1795       C  0.29307008  0.92774629  0.59261525     0.98460
C1796       C  0.19811308  0.92904913  0.59738631     0.98530
N1797       N  0.21861228  0.96848144  0.70808339    -0.06770
N1798       N  0.19566312  0.96843516  0.72023694    -0.62150
N1799       N  0.27993515  0.95028308  0.68721192    -0.06090
N1800       N  0.30286566  0.93817770  0.68432262    -0.58880
N1801       N  0.28045025  0.96874022  0.70691842    -0.07400
N1802       N  0.30394279  0.96942867  0.71791597    -0.61710
N1803       N  0.21864393  0.94981556  0.68859835    -0.06390
N1804       N  0.19589446  0.93676003  0.68707535    -0.58900
Mn1805     Mn  0.24955670  0.00105903  0.70914461     1.20190
Mn1806     Mn  0.24873526  0.94994119  0.65760468     1.10090
Cl1807     Cl  0.24895630  0.00177313  0.65742113    -0.86870
C1808       C  0.18167036  0.94828187  0.70709254     0.95460
C1809       C  0.31769052  0.95010108  0.70368475     0.95260
N1810       N  0.21783519  0.53300436  0.80307694    -0.07020
N1811       N  0.19452232  0.53206671  0.79167360    -0.59140
N1812       N  0.27920981  0.55356036  0.82091981    -0.06700
N1813       N  0.30184011  0.56681144  0.82243731    -0.61270
N1814       N  0.27957754  0.53447587  0.80179305    -0.06300
N1815       N  0.30262719  0.53444662  0.78989389    -0.59120
N1816       N  0.21797273  0.55179490  0.82252316    -0.05980
N1817       N  0.19492751  0.56387895  0.82475559    -0.61620
C1818       C  0.18039589  0.55163065  0.80526360     0.95150
C1819       C  0.31632166  0.55493480  0.80284852     0.94930
N1820       N  0.28043367  0.53662121  0.90297365    -0.07210
N1821       N  0.29411971  0.54859493  0.92265613    -0.59720
N1822       N  0.22149416  0.55308167  0.88465661    -0.05330
N1823       N  0.21003577  0.57663117  0.89166435    -0.60970
N1824       N  0.22247902  0.53545686  0.90505731    -0.07240
N1825       N  0.21190182  0.54747381  0.92654208    -0.59990
N1826       N  0.27977843  0.55373252  0.88221481    -0.04970
N1827       N  0.29357336  0.57652569  0.88675775    -0.61060
Mn1828     Mn  0.24946684  0.55329822  0.85214485     1.18440
C1829       C  0.30262904  0.57314889  0.91168540     0.97230
C1830       C  0.20408086  0.57300297  0.91755542     0.97900
N1831       N  0.28160465  0.96983221  0.80280166    -0.07260
N1832       N  0.30576778  0.97237162  0.79350340    -0.63570
N1833       N  0.21926492  0.94916309  0.82217188    -0.06060
N1834       N  0.19623867  0.93692817  0.82506080    -0.64240
N1835       N  0.21849282  0.96836259  0.80333380    -0.06770
N1836       N  0.19463726  0.96965356  0.79324716    -0.63830
N1837       N  0.28078371  0.94983843  0.82089013    -0.05660
N1838       N  0.30389881  0.93809831  0.82374528    -0.64520
Mn1839     Mn  0.24940866  0.50121220  0.80109897     1.10660
C1840       C  0.31937033  0.95203293  0.80643988     0.98460
C1841       C  0.18110760  0.94952649  0.80659196     0.98530
N1842       N  0.22344014  0.96534230  0.90493483    -0.06770
N1843       N  0.21460152  0.95207631  0.92651658    -0.62150
N1844       N  0.28067499  0.94900145  0.88211305    -0.06090
N1845       N  0.29387805  0.92605959  0.88704144    -0.59300
N1846       N  0.28097525  0.96623680  0.90300265    -0.07400
N1847       N  0.29378759  0.95423419  0.92307786    -0.61710
N1848       N  0.22243470  0.94806155  0.88403536    -0.06390
N1849       N  0.21243243  0.92368061  0.89083642    -0.58900
Mn1850     Mn  0.25180294  0.50100668  0.90475930     1.20190
Mn1851     Mn  0.25061580  0.94882461  0.85165986     1.10090
Cl1852     Cl  0.25025424  0.50110610  0.85266272    -0.86870
C1853       C  0.20775740  0.92617417  0.91714524     0.95460
C1854       C  0.30212131  0.92949027  0.91230723     0.95260
N1855       N  0.02861482  0.66457886  0.72030885    -0.07020
N1856       N  0.03765328  0.68697805  0.70728729    -0.59140
N1857       N  0.47054321  0.64348645  0.70402651    -0.06700
N1858       N  0.45688906  0.64964462  0.68261220    -0.61270
N1859       N  0.47086050  0.66487993  0.72108256    -0.06300
N1860       N  0.45827549  0.68659513  0.71041586    -0.59120
N1861       N  0.02999623  0.64238162  0.70429771    -0.05980
N1862       N  0.04136928  0.64890153  0.68158933    -0.61620
C1863       C  0.04603170  0.67664607  0.68326122     0.95150
C1864       C  0.44909492  0.67630464  0.68664071     0.94930
N1865       N  0.46826745  0.55735553  0.71935254    -0.07210
N1866       N  0.44532540  0.54455164  0.71859570    -0.59720
N1867       N  0.03040418  0.57772955  0.70337449    -0.05330
N1868       N  0.05388636  0.58040700  0.69275458    -0.60970
N1869       N  0.02988186  0.55661370  0.72028298    -0.07240
N1870       N  0.05301518  0.54437429  0.72121683    -0.59990
N1871       N  0.46851400  0.57852199  0.70253584    -0.04970
N1872       N  0.44570525  0.58079301  0.69036056    -0.61060
Mn1873     Mn  0.99984577  0.61008604  0.70330206     1.18440
C1874       C  0.43145482  0.55916978  0.70018634     0.97230
C1875       C  0.06777564  0.55928210  0.70375438     0.97900
N1876       N  0.47116596  0.66281749  0.78843273    -0.07260
N1877       N  0.45847027  0.68371800  0.80060038    -0.63570
N1878       N  0.02986100  0.63937976  0.80312199    -0.06060
N1879       N  0.04401267  0.64418219  0.82463738    -0.64240
N1880       N  0.02963795  0.66167195  0.78739412    -0.06770
N1881       N  0.04294561  0.68245811  0.79905171    -0.63830
N1882       N  0.47060642  0.64033791  0.80387533    -0.05660
N1883       N  0.45681199  0.64501437  0.82559761    -0.64520
Mn1884     Mn  0.50004792  0.66440427  0.75444823     1.10660
C1885       C  0.44898853  0.67184106  0.82348514     0.98460
C1886       C  0.05235589  0.67086767  0.82199858     0.98530
N1887       N  0.02939294  0.55481154  0.78169356    -0.06770
N1888       N  0.05246069  0.54259412  0.78006296    -0.62150
N1889       N  0.46793258  0.57570848  0.80022049    -0.06090
N1890       N  0.44449584  0.57854660  0.81097604    -0.58880
N1891       N  0.46758645  0.55620351  0.78139428    -0.07400
N1892       N  0.44388297  0.54543617  0.77917559    -0.61710
N1893       N  0.02974454  0.57433106  0.80046502    -0.06390
N1894       N  0.05296811  0.57562028  0.81196016    -0.58900
Mn1895     Mn  0.99868885  0.55473715  0.75071328     1.20190
Mn1896     Mn  0.99956070  0.60696202  0.80237935     1.10090
Cl1897     Cl  0.99947481  0.60930778  0.75272177    -0.86870
C1898       C  0.06702828  0.55557153  0.79918766     0.95460
C1899       C  0.42957697  0.55942213  0.79778311     0.95260
N1900       N  0.03031275  0.94632812  0.72657766    -0.07020
N1901       N  0.05402181  0.95718639  0.72886101    -0.59140
N1902       N  0.46832010  0.92657171  0.70826021    -0.06700
N1903       N  0.44499380  0.92426051  0.69712862    -0.61270
N1904       N  0.46824949  0.94591908  0.72721070    -0.06300
N1905       N  0.44473410  0.95694206  0.72939637    -0.59120
N1906       N  0.03006845  0.92675051  0.70780926    -0.05980
N1907       N  0.05349802  0.92409071  0.69705003    -0.61620
C1908       C  0.06831964  0.94332641  0.71018880     0.95150
C1909       C  0.43041740  0.94340392  0.71040702     0.94930
N1910       N  0.47015985  0.83950007  0.72118609    -0.07210
N1911       N  0.45808927  0.81813057  0.70907041    -0.59720
N1912       N  0.02845727  0.86181573  0.70408274    -0.05330
N1913       N  0.04167636  0.85717133  0.68199301    -0.60970
N1914       N  0.02840769  0.83931819  0.71951594    -0.07240
N1915       N  0.04084950  0.81841991  0.70699486    -0.59990
N1916       N  0.46917792  0.86185757  0.70559331    -0.04970
N1917       N  0.45556391  0.85645889  0.68383076    -0.61060
Mn1918     Mn  0.49901593  0.89479492  0.70603424     1.18440
C1919       C  0.44844321  0.82932069  0.68604614     0.97230
C1920       C  0.04957963  0.83032675  0.68381351     0.97900
N1921       N  0.46898860  0.94516721  0.78907079    -0.07260
N1922       N  0.44612059  0.95799604  0.78979947    -0.63570
N1923       N  0.03107845  0.92477548  0.80506634    -0.06060
N1924       N  0.05446139  0.92238600  0.81595019    -0.64240
N1925       N  0.03074419  0.94569239  0.78795628    -0.06770
N1926       N  0.05392364  0.95806052  0.78707329    -0.63830
N1927       N  0.46914170  0.92413173  0.80605593    -0.05660
N1928       N  0.44636466  0.92198753  0.81834056    -0.64520
Mn1929     Mn  0.49950459  0.94730741  0.75761453     1.10660
C1930       C  0.43223380  0.94353260  0.80840815     0.98460
C1931       C  0.06841784  0.94358818  0.80497618     0.98530
N1932       N  0.02996582  0.83846584  0.78681309    -0.06770
N1933       N  0.04424645  0.81775388  0.79702095    -0.62150
N1934       N  0.47083715  0.85929747  0.80467505    -0.06090
N1935       N  0.45766779  0.85307066  0.82642846    -0.58880
N1936       N  0.47150268  0.83761116  0.78800369    -0.07400
N1937       N  0.45963504  0.81573954  0.79931056    -0.61710
N1938       N  0.03017296  0.86011167  0.80354906    -0.06390
N1939       N  0.04526221  0.85521735  0.82418623    -0.58900
Mn1940     Mn  0.50005669  0.83768952  0.75391303     1.20190
Mn1941     Mn  0.50025550  0.89242987  0.80521464     1.10090
Cl1942     Cl  0.49970579  0.89279693  0.75568356    -0.86870
C1943       C  0.05422250  0.82904458  0.82009335     0.95460
C1944       C  0.45044763  0.82610206  0.82300854     0.95260
C1945       C  0.40345498  0.94595234  0.81154468    -0.06370
C1946       C  0.38784663  0.92152749  0.81123955    -0.33800
C1947       C  0.36053792  0.92331869  0.80948988     0.35450
C1948       C  0.34831617  0.94977984  0.80733387    -0.06730
C1949       C  0.36385081  0.97419719  0.80896517    -0.33700
C1950       C  0.39113537  0.97237649  0.81150949     0.35360
H1951       H  0.39686876  0.90092561  0.81133509     0.15730
O1952       O  0.34601501  0.89898830  0.80876473    -0.61200
H1953       H  0.35472111  0.99468066  0.80897237     0.15740
O1954       O  0.40577357  0.99649999  0.81337636    -0.61290
H1955       H  0.40577178  0.50154145  0.83270969     0.42740
H1956       H  0.34378318  0.89351777  0.82781340     0.42690
C1957       C  0.09721401  0.94486106  0.80593011    -0.06370
C1958       C  0.10991836  0.96752080  0.81855444    -0.33800
C1959       C  0.13724669  0.96869265  0.81960736     0.35450
C1960       C  0.15228456  0.94760803  0.80693289    -0.06730
C1961       C  0.13956241  0.92470198  0.79470331    -0.33700
C1962       C  0.11221609  0.92314324  0.79430528     0.35360
H1963       H  0.09862422  0.98401420  0.82810187     0.15730
O1964       O  0.14896841  0.98961673  0.83445491    -0.61200
H1965       H  0.15083867  0.90823802  0.78509714     0.15740
O1966       O  0.10028095  0.90088390  0.78152582    -0.61290
H1967       H  0.09833228  0.88617010  0.79544487     0.42740
H1968       H  0.15881807  0.00108289  0.82142051     0.42690
C1969       C  0.34504394  0.55861771  0.80053893    -0.06370
C1970       C  0.35845307  0.54356504  0.78070873    -0.33800
C1971       C  0.38565096  0.54349890  0.77996645     0.35450
C1972       C  0.40045918  0.55875884  0.79904354    -0.06730
C1973       C  0.38704891  0.57471256  0.81841109    -0.33700
C1974       C  0.35964247  0.57487122  0.81918182     0.35360
H1975       H  0.34785786  0.53106721  0.76600995     0.15730
O1976       O  0.39754029  0.52817363  0.76034658    -0.61200
H1977       H  0.39778494  0.58706981  0.83308734     0.15740
O1978       O  0.34745528  0.59041364  0.83871389    -0.61290
H1979       H  0.34559996  0.60953765  0.83104706     0.42740
H1980       H  0.40388007  0.54259499  0.74776334     0.42690
C1981       C  0.09597604  0.55343230  0.80127412    -0.06370
C1982       C  0.10918284  0.56723678  0.82232948    -0.33800
C1983       C  0.13654538  0.56750637  0.82363845     0.35450
C1984       C  0.15144560  0.55417088  0.80337250    -0.06730
C1985       C  0.13820163  0.54072970  0.78221704    -0.33700
C1986       C  0.11090298  0.53967832  0.78136494     0.35360
H1987       H  0.09826248  0.57788440  0.83796140     0.15730
O1988       O  0.14836257  0.58015847  0.84529836    -0.61200
H1989       H  0.14914196  0.53072912  0.76633864     0.15740
O1990       O  0.09912873  0.52544251  0.76065558    -0.61290
H1991       H  0.09346270  0.50727635  0.76848544     0.42740
H1992       H  0.15010409  0.60030319  0.84040093     0.42690
C1993       C  0.34639577  0.94692300  0.70529128    -0.06370
C1994       C  0.35922561  0.95362381  0.72928664    -0.33800
C1995       C  0.38638347  0.95222899  0.73103335     0.35450
C1996       C  0.40150875  0.94458162  0.70859163    -0.06730
C1997       C  0.38870953  0.93738867  0.68461583    -0.33700
C1998       C  0.36141407  0.93865289  0.68277053     0.35360
H1999       H  0.34815396  0.95983843  0.74685005     0.15730
O2000       O  0.39794197  0.95723734  0.75522683    -0.61200
H2001       H  0.39990308  0.93124642  0.66711491     0.15740
O2002       O  0.34976348  0.93235346  0.65867386    -0.61290
H2003       H  0.34880055  0.95053773  0.64901262     0.42740
H2004       H  0.40261147  0.97745289  0.75510823     0.42690
C2005       C  0.09736594  0.94393347  0.70921879    -0.06370
C2006       C  0.11136702  0.95591121  0.73069087    -0.33800
C2007       C  0.13869010  0.95638618  0.73083644     0.35450
C2008       C  0.15284646  0.94453727  0.70937682    -0.06730
C2009       C  0.13885951  0.93167397  0.68824740    -0.33700
C2010       C  0.11145869  0.93129065  0.68805114     0.35360
H2011       H  0.10109611  0.96488458  0.74759654     0.15730
O2012       O  0.15133446  0.96925409  0.75176942    -0.61200
H2013       H  0.14913116  0.92263155  0.67128870     0.15740
O2014       O  0.09872730  0.91933925  0.66658449    -0.61290
H2015       H  0.09823763  0.89885786  0.67040185     0.42740
H2016       H  0.15365014  0.98905533  0.74616244     0.42690
C2017       C  0.34760416  0.55356393  0.70268041    -0.06370
C2018       C  0.36272668  0.52899617  0.70119616    -0.33800
C2019       C  0.38992066  0.53059008  0.69812847     0.35450
C2020       C  0.40262133  0.55694710  0.69747544    -0.06730
C2021       C  0.38740512  0.58150352  0.69794950    -0.33700
C2022       C  0.36014406  0.57993082  0.70032746     0.35360
H2023       H  0.35336357  0.50852198  0.70174543     0.15730
O2024       O  0.40397458  0.50627732  0.69556778    -0.61200
H2025       H  0.39672114  0.60203550  0.69747953     0.15740
O2026       O  0.34595446  0.60435459  0.70078111    -0.61290
H2027       H  0.34432558  0.60941920  0.72004695     0.42740
H2028       H  0.41127622  0.00279991  0.71364918     0.42690
C2029       C  0.09665184  0.55758703  0.70262101    -0.06370
C2030       C  0.10889750  0.53130492  0.70063789    -0.33800
C2031       C  0.13620018  0.52936899  0.70087916     0.35450
C2032       C  0.15173809  0.55353699  0.70492855    -0.06730
C2033       C  0.13957951  0.57992044  0.70606621    -0.33700
C2034       C  0.11229221  0.58210379  0.70466069     0.35360
H2035       H  0.09729020  0.51230901  0.69828579     0.15730
O2036       O  0.14764240  0.50400356  0.69550851    -0.61200
H2037       H  0.15126585  0.59888638  0.70814623     0.15740
O2038       O  0.10108315  0.60822775  0.70654076    -0.61290
H2039       H  0.10089055  0.61553793  0.68793142     0.42740
H2040       H  0.14929766  0.00311127  0.67567476     0.42690
C2041       C  0.29851645  0.90238442  0.57626246    -0.06370
C2042       C  0.31580968  0.90358673  0.55469490    -0.33800
C2043       C  0.32572257  0.87862631  0.54362122     0.35450
C2044       C  0.31825675  0.85213302  0.55422296    -0.06730
C2045       C  0.29850345  0.85092950  0.57339069    -0.33700
C2046       C  0.28845441  0.87583002  0.58429657     0.35360
H2047       H  0.32296785  0.92373757  0.54762802     0.15730
O2048       O  0.34314596  0.88028020  0.52277033    -0.61200
H2049       H  0.29208797  0.83079034  0.58119170     0.15740
O2050       O  0.26968733  0.87389946  0.60382563    -0.61290
H2051       H  0.25293719  0.87723712  0.59442941     0.42740
H2052       H  0.35978660  0.88673326  0.53094228     0.42690
C2053       C  0.30041819  0.60361891  0.58113604    -0.06370
C2054       C  0.29559458  0.62952015  0.59442227    -0.33800
C2055       C  0.30345388  0.65517323  0.58342652     0.35450
C2056       C  0.31656370  0.65532950  0.55889556    -0.06730
C2057       C  0.31950430  0.62987493  0.54444777    -0.33700
C2058       C  0.31134573  0.60408961  0.55533486     0.35360
H2059       H  0.28652468  0.62998072  0.61404706     0.15730
O2060       O  0.30063513  0.67953229  0.59806732    -0.61200
H2061       H  0.32957718  0.62983213  0.52532347     0.15740
O2062       O  0.31540084  0.57958029  0.54126299    -0.61290
H2063       H  0.33328598  0.57359865  0.54610952     0.42740
H2064       H  0.28342279  0.68710012  0.59271808     0.42690
C2065       C  0.32759832  0.84954355  0.93859641    -0.06370
C2066       C  0.34314571  0.86650684  0.92201950    -0.33800
C2067       C  0.33626880  0.89407316  0.91615395     0.35450
C2068       C  0.31312577  0.90535881  0.92640908    -0.06730
C2069       C  0.29711437  0.88856315  0.94285977    -0.33700
C2070       C  0.30444603  0.86082725  0.94933377     0.35360
H2071       H  0.36122850  0.85852935  0.91400150     0.15730
O2072       O  0.35171150  0.90949172  0.89914220    -0.61200
H2073       H  0.27853296  0.89656425  0.94981039     0.15740
O2074       O  0.28915461  0.84522793  0.96629829    -0.61290
H2075       H  0.29564764  0.84971652  0.98459463     0.42740
H2076       H  0.36357236  0.92042901  0.91103280     0.42690
C2077       C  0.31385835  0.59755102  0.92560704    -0.06370
C2078       C  0.29840399  0.61327359  0.94350514    -0.33800
C2079       C  0.30493262  0.64138953  0.94979280     0.35450
C2080       C  0.32685798  0.65402175  0.93771195    -0.06730
C2081       C  0.34204919  0.63811855  0.91983613    -0.33700
C2082       C  0.33588347  0.61017477  0.91402924     0.35360
H2083       H  0.28076947  0.60412570  0.95175181     0.15730
O2084       O  0.29064102  0.65575390  0.96862707    -0.61200
H2085       H  0.35953403  0.64715512  0.91110886     0.15740
O2086       O  0.35102926  0.59552387  0.89612261    -0.61290
H2087       H  0.36416293  0.58571152  0.90724588     0.42740
H2088       H  0.27607403  0.66432407  0.95849485     0.42690
C2089       C  0.44297265  0.80106320  0.90354394    -0.06370
C2090       C  0.46555377  0.79421718  0.88914101    -0.33800
C2091       C  0.46676873  0.79833903  0.86128629     0.35450
C2092       C  0.44531589  0.80947176  0.84730311    -0.06730
C2093       C  0.42223082  0.81463380  0.86136935    -0.33700
C2094       C  0.42088141  0.81044203  0.88914859     0.35360
H2095       H  0.48284687  0.78731859  0.89968098     0.15730
O2096       O  0.48998373  0.79443695  0.84832845    -0.61200
H2097       H  0.40585086  0.82419807  0.85118664     0.15740
O2098       O  0.39812197  0.81683299  0.90212830    -0.61290
H2099       H  0.39983583  0.83709507  0.90676187     0.42740
H2100       H  0.49925614  0.81277290  0.84987236     0.42690
C2101       C  0.44131381  0.80254106  0.60525521    -0.06370
C2102       C  0.46541825  0.80107475  0.61830177    -0.33800
C2103       C  0.46732884  0.80709640  0.64576057     0.35450
C2104       C  0.44489781  0.81328767  0.66094337    -0.06730
C2105       C  0.42052179  0.81278439  0.64830140    -0.33700
C2106       C  0.41857954  0.80726104  0.62065786     0.35360
H2107       H  0.48306715  0.79744870  0.60685504     0.15730
O2108       O  0.49149989  0.81012468  0.65708822    -0.61200
H2109       H  0.40319761  0.81850027  0.65947572     0.15740
O2110       O  0.39446652  0.80758138  0.60876303    -0.61290
H2111       H  0.38883959  0.78756507  0.60803875     0.42740
H2112       H  0.49745973  0.82929879  0.65204603     0.42690
C2113       C  0.43956645  0.69745904  0.90416926    -0.06370
C2114       C  0.42198317  0.67810713  0.89253433    -0.33800
C2115       C  0.42232559  0.67246026  0.86491632     0.35450
C2116       C  0.44003286  0.68662065  0.84805708    -0.06730
C2117       C  0.45530714  0.70844678  0.85904521    -0.33700
C2118       C  0.45567973  0.71341266  0.88694133     0.35360
H2119       H  0.40867610  0.66616748  0.90499578     0.15730
O2120       O  0.40623595  0.65183282  0.85466355    -0.61200
H2121       H  0.46863588  0.71999973  0.84635103     0.15740
O2122       O  0.47269700  0.73303064  0.89710550    -0.61290
H2123       H  0.48594599  0.72207454  0.90697584     0.42740
H2124       H  0.41395784  0.63371298  0.86041221     0.42690
C2125       C  0.43662233  0.70196588  0.60732908    -0.06370
C2126       C  0.45307551  0.71858842  0.62378161    -0.33800
C2127       C  0.45413989  0.71420505  0.65178444     0.35450
C2128       C  0.43924239  0.69238137  0.66342576    -0.06730
C2129       C  0.42068818  0.67842950  0.64751213    -0.33700
C2130       C  0.41907543  0.68315341  0.61994328     0.35360
H2131       H  0.46571708  0.73431386  0.61488762     0.15730
O2132       O  0.47036318  0.73063557  0.66730758    -0.61200
H2133       H  0.40894236  0.66169587  0.65609893     0.15740
O2134       O  0.40138173  0.66760794  0.60537866    -0.61290
H2135       H  0.38508196  0.67877712  0.60575313     0.42740
H2136       H  0.48682476  0.72002478  0.66906152     0.42690
C2137       C  0.18285529  0.85000646  0.95288337    -0.06370
C2138       C  0.20451732  0.84964275  0.93600315    -0.33800
C2139       C  0.21461626  0.87503781  0.92620129     0.35450
C2140       C  0.20292838  0.90099369  0.93345075    -0.06730
C2141       C  0.18374201  0.90147620  0.95318136    -0.33700
C2142       C  0.17373439  0.87619448  0.96306088     0.35360
H2143       H  0.21228926  0.82980661  0.92877645     0.15730
O2144       O  0.23535795  0.87432837  0.90880069    -0.61200
H2145       H  0.17505745  0.92125904  0.95935063     0.15740
O2146       O  0.15364643  0.87736827  0.98120942    -0.61290
H2147       H  0.16204314  0.87603375  0.99906833     0.42740
H2148       H  0.22816196  0.86732527  0.89151002     0.42690
C2149       C  0.19659915  0.59713304  0.93422719    -0.06370
C2150       C  0.17271368  0.59655650  0.94731350    -0.33800
C2151       C  0.16128664  0.62161402  0.95596991     0.35450
C2152       C  0.17411486  0.64792248  0.95185328    -0.06730
C2153       C  0.19931805  0.64802657  0.94117366    -0.33700
C2154       C  0.21050658  0.62280944  0.93212222     0.35360
H2155       H  0.16195830  0.57693199  0.94904284     0.15730
O2156       O  0.13729922  0.62000064  0.96807185    -0.61200
H2157       H  0.20978557  0.66770497  0.93858531     0.15740
O2158       O  0.23478839  0.62343131  0.92056062    -0.61290
H2159       H  0.23208238  0.63091442  0.90223083     0.42740
H2160       H  0.12458724  0.61792620  0.95316301     0.42690
C2161       C  0.18867889  0.90305729  0.58408814    -0.06370
C2162       C  0.17547828  0.88374301  0.60061794    -0.33800
C2163       C  0.17086829  0.85615564  0.59234449     0.35450
C2164       C  0.17845035  0.84735945  0.56669632    -0.06730
C2165       C  0.19176682  0.86635686  0.54989088    -0.33700
C2166       C  0.19715794  0.89409865  0.55855342     0.35360
H2167       H  0.16917008  0.88990879  0.62056864     0.15730
O2168       O  0.15760865  0.83822445  0.60902725    -0.61200
H2169       H  0.19699177  0.86002380  0.52967352     0.15740
O2170       O  0.21124045  0.91179164  0.54237108    -0.61290
H2171       H  0.19828415  0.92013256  0.52999394     0.42740
H2172       H  0.17130794  0.82768718  0.61873266     0.42690
C2173       C  0.19643628  0.60187092  0.58004351    -0.06370
C2174       C  0.17745563  0.60052989  0.56003944    -0.33800
C2175       C  0.16696652  0.62538659  0.54969218     0.35450
C2176       C  0.17565903  0.65199740  0.55934161    -0.06730
C2177       C  0.19684673  0.65324889  0.57686317    -0.33700
C2178       C  0.20722988  0.62839358  0.58732341     0.35360
H2179       H  0.16958459  0.58034567  0.55365416     0.15730
O2180       O  0.14804141  0.62347617  0.53027082    -0.61200
H2181       H  0.20433716  0.67344194  0.58369637     0.15740
O2182       O  0.22777532  0.63020069  0.60493144    -0.61290
H2183       H  0.22020124  0.63700677  0.62208729     0.42740
H2184       H  0.13193166  0.61770877  0.53982022     0.42690
C2185       C  0.06530440  0.80501384  0.89958121    -0.06370
C2186       C  0.05131237  0.78685317  0.88232590    -0.33800
C2187       C  0.05190071  0.79062310  0.85428054     0.35450
C2188       C  0.06512085  0.81393250  0.84337189    -0.06730
C2189       C  0.08151074  0.82981706  0.86019338    -0.33700
C2190       C  0.08165275  0.82569413  0.88792489     0.35360
H2191       H  0.03920458  0.77043005  0.89063980     0.15730
O2192       O  0.03750233  0.77311518  0.83804797    -0.61200
H2193       H  0.09209791  0.84771001  0.85215142     0.15740
O2194       O  0.09681586  0.84324365  0.90344860    -0.61290
H2195       H  0.08597289  0.86016542  0.90677288     0.42740
H2196       H  0.05045625  0.76112845  0.82868110     0.42690
C2197       C  0.06108664  0.80701846  0.60281102    -0.06370
C2198       C  0.04723898  0.78835399  0.61960048    -0.33800
C2199       C  0.04683432  0.79242822  0.64774445     0.35450
C2200       C  0.05945240  0.81608662  0.65922803    -0.06730
C2201       C  0.07556602  0.83250668  0.64278916    -0.33700
C2202       C  0.07648528  0.82826675  0.61507615     0.35360
H2203       H  0.03618177  0.77106810  0.61090776     0.15730
O2204       O  0.03222118  0.77470539  0.66338595    -0.61200
H2205       H  0.08569557  0.85061917  0.65118879     0.15740
O2206       O  0.09102833  0.84666686  0.60007607    -0.61290
H2207       H  0.10831758  0.83763222  0.59826032     0.42740
H2208       H  0.04431773  0.75951587  0.66876132     0.42690
C2209       C  0.05940965  0.68656689  0.84655692    -0.06370
C2210       C  0.07943406  0.67578965  0.86257186    -0.33800
C2211       C  0.08030739  0.68142227  0.89019760     0.35450
C2212       C  0.06083648  0.69822692  0.90239021    -0.06730
C2213       C  0.04207742  0.71076058  0.88589830    -0.33700
C2214       C  0.04104275  0.70482010  0.85831719     0.35360
H2215       H  0.09332791  0.66113195  0.85400009     0.15730
O2216       O  0.09998669  0.66978128  0.90506944    -0.61200
H2217       H  0.02732740  0.72401471  0.89465742     0.15740
O2218       O  0.02037636  0.71454194  0.84365797    -0.61290
H2219       H  0.00833217  0.69821916  0.84201180     0.42740
H2220       H  0.09415435  0.65026081  0.90891992     0.42690
C2221       C  0.04966466  0.70669407  0.60312115    -0.06370
C2222       C  0.02619000  0.69650649  0.61337946    -0.33800
C2223       C  0.02442842  0.68859828  0.64029790     0.35450
C2224       C  0.04581741  0.69258787  0.65790275    -0.06730
C2225       C  0.06869164  0.70498381  0.64805322    -0.33700
C2226       C  0.07075155  0.71190774  0.62073435     0.35360
H2227       H  0.00992832  0.69226623  0.60002365     0.15730
O2228       O  0.00243048  0.67469800  0.64877868    -0.61200
H2229       H  0.08552661  0.70738445  0.66101662     0.15740
O2230       O  0.09387203  0.72240727  0.61115168    -0.61290
H2231       H  0.09162312  0.74315511  0.61101405     0.42740
H2232       H  0.00363873  0.65541677  0.64108480     0.42690
N2233       N  0.65142134  0.21669097  0.03484217    -0.07020
N2234       N  0.67140429  0.20283113  0.04532059    -0.59140
N2235       N  0.63084774  0.19884896  0.47533746    -0.06700
N2236       N  0.63518790  0.17438704  0.46409115    -0.61270
N2237       N  0.65214321  0.21456109  0.47558772    -0.06300
N2238       N  0.67175103  0.19969924  0.46533764    -0.59120
N2239       N  0.63039650  0.20051958  0.03553456    -0.05980
N2240       N  0.63553680  0.17635446  0.04695323    -0.61620
C2241       C  0.66096938  0.17773811  0.05283752     0.95150
C2242       C  0.66055222  0.17465045  0.45816195     0.94930
N2243       N  0.55435293  0.22154595  0.47015072    -0.07210
N2244       N  0.54613438  0.22280311  0.44493357    -0.59720
N2245       N  0.57044448  0.20503072  0.03583031    -0.05330
N2246       N  0.57215013  0.19506624  0.06042936    -0.60970
N2247       N  0.55173747  0.22370790  0.03418573    -0.07240
N2248       N  0.54005117  0.22650790  0.05774433    -0.59990
N2249       N  0.57200109  0.20180196  0.47243409    -0.04970
N2250       N  0.57599572  0.18927787  0.44913627    -0.61060
Mn2251     Mn  0.60029984  0.20142951  0.00498979     1.18440
C2252       C  0.55983537  0.20240625  0.43203817     0.97230
C2253       C  0.55298170  0.20844956  0.07381462     0.97900
N2254       N  0.65500031  0.28566039  0.47424816    -0.07260
N2255       N  0.67615054  0.29884754  0.46519176    -0.63570
N2256       N  0.63402142  0.30490269  0.03266413    -0.06060
N2257       N  0.63971384  0.32808184  0.04585340    -0.64240
N2258       N  0.65356529  0.28691688  0.03348012    -0.06770
N2259       N  0.67339060  0.29842107  0.04684400    -0.63830
N2260       N  0.63485021  0.30280948  0.47248179    -0.05660
N2261       N  0.64155397  0.32658252  0.46122942    -0.64520
Mn2262     Mn  0.65391597  0.25094631  0.50447212     1.10660
C2263       C  0.66716964  0.32433578  0.45708186     0.98460
C2264       C  0.66396675  0.32385418  0.05475616     0.98530
N2265       N  0.55508907  0.28731759  0.03361537    -0.06770
N2266       N  0.54595646  0.28545655  0.05852728    -0.62150
N2267       N  0.57571940  0.30437657  0.46980015    -0.06090
N2268       N  0.58048253  0.31528824  0.44608019    -0.58880
N2269       N  0.55690490  0.28565382  0.46830702    -0.07400
N2270       N  0.54877145  0.28336271  0.44303963    -0.61710
N2271       N  0.57423754  0.30573462  0.03296363    -0.06390
N2272       N  0.57817293  0.31679840  0.05693266    -0.58900
Mn2273     Mn  0.55286142  0.25471506  0.00136567     1.20190
Mn2274     Mn  0.60406254  0.30469479  0.50200715     1.10090
Cl2275     Cl  0.60334741  0.25293051  0.00323884    -0.86870
C2276       C  0.56049752  0.30417913  0.07288094     0.95460
C2277       C  0.56364136  0.30224045  0.42939621     0.95260
N2278       N  0.94320036  0.21984457  0.03799955    -0.07020
N2279       N  0.95185882  0.22261183  0.06302670    -0.59140
N2280       N  0.92634145  0.19907358  0.47387790    -0.06700
N2281       N  0.92288448  0.18741714  0.45004712    -0.61270
N2282       N  0.94473192  0.21831944  0.47299437    -0.06300
N2283       N  0.95388155  0.22017415  0.44815039    -0.59120
N2284       N  0.92435970  0.20105901  0.03720291    -0.05980
N2285       N  0.92004022  0.19070463  0.06127312    -0.61620
C2286       C  0.93723330  0.20416668  0.07737440     0.95150
C2287       C  0.94011300  0.20060732  0.43401793     0.94930
N2288       N  0.84709329  0.21603674  0.47205266    -0.07210
N2289       N  0.82831216  0.20355754  0.45780640    -0.59720
N2290       N  0.86432532  0.19971696  0.03295178    -0.05330
N2291       N  0.85765894  0.17622529  0.04490288    -0.60970
N2292       N  0.84439114  0.21722304  0.03174650    -0.07240
N2293       N  0.82358856  0.20512469  0.04272414    -0.59990
N2294       N  0.86749287  0.19924304  0.47301644    -0.04970
N2295       N  0.86366904  0.17637945  0.45880684    -0.61060
Mn2296     Mn  0.89624465  0.19950330  0.00448539     1.18440
C2297       C  0.83950446  0.17910535  0.44924487     0.97230
C2298       C  0.83249903  0.17971992  0.05108210     0.97900
N2299       N  0.94595675  0.28250446  0.47252329    -0.07260
N2300       N  0.95596274  0.28017906  0.44805144    -0.63570
N2301       N  0.92553186  0.30196660  0.03626752    -0.06060
N2302       N  0.92194154  0.31280122  0.06043526    -0.64240
N2303       N  0.94461307  0.28363642  0.03652606    -0.06770
N2304       N  0.95457563  0.28195149  0.06096781    -0.63830
N2305       N  0.92765245  0.30171307  0.47273672    -0.05660
N2306       N  0.92489164  0.31271450  0.44868586    -0.64520
Mn2307     Mn  0.94621763  0.25098002  0.00494513     1.10660
C2308       C  0.94258775  0.29926280  0.43336599     0.98460
C2309       C  0.94023305  0.30024749  0.07564872     0.98530
N2310       N  0.84499515  0.28772589  0.03092763    -0.06770
N2311       N  0.82427481  0.30114940  0.04052905    -0.62150
N2312       N  0.86846169  0.30337367  0.47199514    -0.06090
N2313       N  0.86471351  0.32636646  0.45822158    -0.58880
N2314       N  0.84759511  0.28701274  0.47152997    -0.07400
N2315       N  0.82867066  0.29995173  0.45814541    -0.61710
N2316       N  0.86548977  0.30468785  0.03203344    -0.06390
N2317       N  0.85926282  0.32903001  0.04276390    -0.58900
Mn2318     Mn  0.84500384  0.25195053  0.00151051     1.20190
Mn2319     Mn  0.89739483  0.30316419  0.00347665     1.10090
Cl2320     Cl  0.89562459  0.25142299  0.00370410    -0.86870
C2321       C  0.83373286  0.32684532  0.04791274     0.95460
C2322       C  0.84013364  0.32423524  0.44951138     0.95260
N2323       N  0.71968470  0.03763800  0.10666666    -0.07020
N2324       N  0.70936283  0.05090361  0.08580578    -0.59140
N2325       N  0.77826533  0.05427736  0.12749866    -0.06700
N2326       N  0.78944617  0.07841671  0.12208376    -0.61270
N2327       N  0.77724002  0.03793848  0.10594216    -0.06300
N2328       N  0.78700341  0.05200219  0.08515557    -0.59120
N2329       N  0.71986752  0.05476893  0.12768517    -0.05980
N2330       N  0.70923179  0.07900151  0.12174326    -0.61620
C2331       C  0.70286598  0.07663781  0.09578658     0.95150
C2332       C  0.79470312  0.07721135  0.09582718     0.94930
N2333       N  0.78109080  0.03318348  0.20730448    -0.07210
N2334       N  0.80518126  0.03111181  0.21675109    -0.59720
N2335       N  0.71873356  0.05292002  0.18950772    -0.05330
N2336       N  0.69569182  0.06499206  0.18712796    -0.60970
N2337       N  0.71812393  0.03318979  0.20787835    -0.07240
N2338       N  0.69426637  0.03118909  0.21793557    -0.59990
N2339       N  0.78019335  0.05294048  0.18900859    -0.04970
N2340       N  0.80327369  0.06497647  0.18608752    -0.61060
Mn2341     Mn  0.74923965  0.05384171  0.15900585     1.18440
C2342       C  0.81871514  0.05144099  0.20365398     0.97230
C2343       C  0.68059943  0.05152118  0.20514172     0.97900
N2344       N  0.77674570  0.46677819  0.10477057    -0.07260
N2345       N  0.78621649  0.45355245  0.08329998    -0.63570
N2346       N  0.71872159  0.45046454  0.12748718    -0.06060
N2347       N  0.70551034  0.42734426  0.12302809    -0.64240
N2348       N  0.71908479  0.46669533  0.10609158    -0.06770
N2349       N  0.70690060  0.45339959  0.08602641    -0.63830
N2350       N  0.77729480  0.44954100  0.12549142    -0.05660
N2351       N  0.78772564  0.42535167  0.11878102    -0.64520
Mn2352     Mn  0.74820385  0.00223609  0.10502519     1.10660
C2353       C  0.79306637  0.42775114  0.09261711     0.98460
C2354       C  0.69810780  0.42905289  0.09739928     0.98530
N2355       N  0.71862016  0.46848336  0.20809406    -0.06770
N2356       N  0.69567162  0.46843674  0.22024921    -0.62150
N2357       N  0.77994156  0.45028474  0.18721553    -0.06090
N2358       N  0.80287197  0.43817986  0.18432307    -0.58880
N2359       N  0.78045880  0.46874210  0.20692180    -0.07400
N2360       N  0.80395286  0.46943124  0.21791583    -0.61710
N2361       N  0.71865106  0.44981667  0.18860966    -0.06390
N2362       N  0.69590214  0.43676005  0.18708891    -0.58900
Mn2363     Mn  0.74956524  0.50106114  0.20915159     1.20190
Mn2364     Mn  0.74873846  0.44994280  0.15761222     1.10090
Cl2365     Cl  0.74895898  0.50177485  0.15742880    -0.86870
C2366       C  0.68167887  0.44828206  0.20710652     0.95460
C2367       C  0.81769927  0.45010387  0.20368285     0.95260
N2368       N  0.71782719  0.03300433  0.30308609    -0.07020
N2369       N  0.69451422  0.03206775  0.29168316    -0.59140
N2370       N  0.77920258  0.05355833  0.32092521    -0.06700
N2371       N  0.80183293  0.06680952  0.32244023    -0.61270
N2372       N  0.77956837  0.03447418  0.30179813    -0.06300
N2373       N  0.80261663  0.03444516  0.28989619    -0.59120
N2374       N  0.71796589  0.05179456  0.32253251    -0.05980
N2375       N  0.69492121  0.06387962  0.32476554    -0.61620
C2376       C  0.68038888  0.05163210  0.30527365     0.95150
C2377       C  0.81631232  0.05493321  0.30284954     0.94930
N2378       N  0.78043025  0.03662315  0.40298114    -0.07210
N2379       N  0.79411271  0.04860170  0.42266396    -0.59720
N2380       N  0.72149092  0.05308268  0.38466599    -0.05330
N2381       N  0.71003467  0.07663353  0.39167341    -0.60970
N2382       N  0.72247664  0.03545904  0.40506766    -0.07240
N2383       N  0.71190229  0.04747861  0.42655280    -0.59990
N2384       N  0.77977479  0.05373232  0.38222057    -0.04970
N2385       N  0.79356649  0.07652791  0.38676262    -0.61060
Mn2386     Mn  0.74946164  0.05329732  0.35215236     1.18440
C2387       C  0.80261998  0.07315593  0.41169160     0.97230
C2388       C  0.70408209  0.07300792  0.41756533     0.97900
N2389       N  0.78160357  0.46978850  0.30274535    -0.07260
N2390       N  0.80576205  0.47231695  0.29343067    -0.63570
N2391       N  0.71929389  0.44912791  0.32214161    -0.06060
N2392       N  0.69626836  0.43689370  0.32504455    -0.64240
N2393       N  0.71851146  0.46830768  0.30327689    -0.06770
N2394       N  0.69465313  0.46958030  0.29319576    -0.63830
N2395       N  0.78080372  0.44983402  0.32088383    -0.05660
N2396       N  0.80392473  0.43811095  0.32374554    -0.64520
Mn2397     Mn  0.74939907  0.00121157  0.30110630     1.10660
C2398       C  0.81937921  0.45201317  0.30640173     0.98460
C2399       C  0.68113046  0.44946660  0.30656502     0.98530
N2400       N  0.72336736  0.46536126  0.40486114    -0.06770
N2401       N  0.71451990  0.45211089  0.42644871    -0.62150
N2402       N  0.78067376  0.44903017  0.38212454    -0.06090
N2403       N  0.79387839  0.42609850  0.38709060    -0.59300
N2404       N  0.78092199  0.46627438  0.40300102    -0.07400
N2405       N  0.79370436  0.45429595  0.42311008    -0.61710
N2406       N  0.72241305  0.44805435  0.38398727    -0.06390
N2407       N  0.71242972  0.42366840  0.39079957    -0.58900
Mn2408     Mn  0.75179978  0.00100675  0.40476828     1.20190
Mn2409     Mn  0.75063859  0.44881685  0.35167479     1.10090
Cl2410     Cl  0.75024796  0.00110584  0.35267079    -0.86870
C2411       C  0.70771785  0.42618680  0.41709851     0.95460
C2412       C  0.80207253  0.42955069  0.41237071     0.95260
N2413       N  0.52861064  0.16457710  0.22031149    -0.07020
N2414       N  0.53765111  0.18697449  0.20728858    -0.59140
N2415       N  0.97053843  0.14348430  0.20401289    -0.06700
N2416       N  0.95688461  0.14964187  0.18259823    -0.61270
N2417       N  0.97085602  0.16487832  0.22106832    -0.06300
N2418       N  0.95827146  0.18659342  0.21040062    -0.59120
N2419       N  0.52998920  0.14237883  0.20430139    -0.05980
N2420       N  0.54136199  0.14889609  0.18159219    -0.61620
C2421       C  0.54602759  0.17664009  0.18326270     0.95150
C2422       C  0.94909089  0.17630213  0.18662562     0.94930
N2423       N  0.96825821  0.05735371  0.21933853    -0.07210
N2424       N  0.94531586  0.04455060  0.21858104    -0.59720
N2425       N  0.53039572  0.07772742  0.20338366    -0.05330
N2426       N  0.55387709  0.08040449  0.19276193    -0.60970
N2427       N  0.52987506  0.05661361  0.22029452    -0.07240
N2428       N  0.55300893  0.04437528  0.22122827    -0.59990
N2429       N  0.96850603  0.07852016  0.20252190    -0.04970
N2430       N  0.94569770  0.08079197  0.19034586    -0.61060
Mn2431     Mn  0.49983783  0.11008414  0.20331051     1.18440
C2432       C  0.93144637  0.05916910  0.20017117     0.97230
C2433       C  0.56776779  0.05928164  0.20376319     0.97900
N2434       N  0.97115929  0.16281624  0.28841955    -0.07260
N2435       N  0.95846550  0.18371811  0.30058719    -0.63570
N2436       N  0.52985869  0.13938488  0.30312677    -0.06060
N2437       N  0.54401185  0.14418778  0.32464100    -0.64240
N2438       N  0.52963647  0.16167575  0.28739720    -0.06770
N2439       N  0.54294617  0.18246172  0.29905263    -0.63830
N2440       N  0.97059841  0.14033690  0.30386250    -0.05660
N2441       N  0.95680486  0.14501504  0.32558508    -0.64520
Mn2442     Mn  0.00004222  0.16440120  0.25443608     1.10660
C2443       C  0.94898345  0.17184245  0.32347236     0.98460
C2444       C  0.55235688  0.17087230  0.32199983     0.98530
N2445       N  0.52938706  0.05481576  0.28170563    -0.06770
N2446       N  0.55245427  0.04259727  0.28007574    -0.62150
N2447       N  0.96792187  0.07570686  0.30020673    -0.06090
N2448       N  0.94448579  0.07854516  0.31096342    -0.58880
N2449       N  0.96757476  0.05620221  0.28138021    -0.07400
N2450       N  0.94387101  0.04543539  0.27916217    -0.61710
N2451       N  0.52973920  0.07433665  0.30047573    -0.06390
N2452       N  0.55296282  0.07562588  0.31197070    -0.58900
Mn2453     Mn  0.49868307  0.05473957  0.25072632     1.20190
Mn2454     Mn  0.49955662  0.10696915  0.30238768     1.10090
Cl2455     Cl  0.49946985  0.10931044  0.25273019    -0.86870
C2456       C  0.56702222  0.05557560  0.29919947     0.95460
C2457       C  0.92956617  0.05942137  0.29777068     0.95260
N2458       N  0.53032258  0.44632351  0.22659070    -0.07020
N2459       N  0.55403131  0.45718230  0.22887346    -0.59140
N2460       N  0.96832934  0.42657367  0.20824755    -0.06700
N2461       N  0.94500272  0.42426291  0.19711647    -0.61270
N2462       N  0.96826029  0.44592362  0.22719566    -0.06300
N2463       N  0.94474584  0.45694916  0.22937977    -0.59120
N2464       N  0.53007813  0.42674557  0.20782264    -0.05980
N2465       N  0.55350764  0.42408569  0.19706329    -0.61620
C2466       C  0.56832904  0.44332196  0.21020168     0.95150
C2467       C  0.93042781  0.44340958  0.21039235     0.94930
N2468       N  0.97015845  0.33950412  0.22118320    -0.07210
N2469       N  0.95808631  0.31813464  0.20906912    -0.59720
N2470       N  0.52846292  0.36181005  0.20409455    -0.05330
N2471       N  0.54168090  0.35716420  0.18200434    -0.60970
N2472       N  0.52841110  0.33931212  0.21952727    -0.07240
N2473       N  0.54085010  0.31841236  0.20700547    -0.59990
N2474       N  0.96918025  0.36185969  0.20558767    -0.04970
N2475       N  0.95556709  0.35646001  0.18382478    -0.61060
Mn2476     Mn  0.99902209  0.39479302  0.20602625     1.18440
C2477       C  0.94844314  0.32932307  0.18604284     0.97230
C2478       C  0.54958101  0.33031839  0.18382411     0.97900
N2479       N  0.96899881  0.44517865  0.28905623    -0.07260
N2480       N  0.94613012  0.45800626  0.28977991    -0.63570
N2481       N  0.53109067  0.42476531  0.30507839    -0.06060
N2482       N  0.55447537  0.42236669  0.31595642    -0.64240
N2483       N  0.53075897  0.44568308  0.28796910    -0.06770
N2484       N  0.55394242  0.45804266  0.28708152    -0.63830
N2485       N  0.96915068  0.42414582  0.30604436    -0.05660
N2486       N  0.94637227  0.42200236  0.31832601    -0.64520
Mn2487     Mn  0.99951480  0.44731189  0.25760030     1.10660
C2488       C  0.93224180  0.44354502  0.30838877     0.98460
C2489       C  0.56843649  0.44356377  0.30498003     0.98530
N2490       N  0.52996997  0.33845885  0.28682343    -0.06770
N2491       N  0.54425135  0.31774642  0.29702919    -0.62150
N2492       N  0.97083702  0.35931209  0.30467137    -0.06090
N2493       N  0.95766436  0.35309092  0.32642425    -0.58880
N2494       N  0.97149833  0.33762433  0.28800157    -0.07400
N2495       N  0.95962400  0.31575721  0.29930900    -0.61710
N2496       N  0.53017820  0.36010380  0.30356027    -0.06390
N2497       N  0.54526891  0.35520859  0.32419607    -0.58900
Mn2498     Mn  0.00005367  0.33769341  0.25391147     1.20190
Mn2499     Mn  0.00026022  0.39243990  0.30520711     1.10090
Cl2500     Cl  0.99971030  0.39280105  0.25567575    -0.86870
C2501       C  0.55422906  0.32903611  0.32010126     0.95460
C2502       C  0.95043724  0.32612422  0.32300562     0.95260
C2503       C  0.90346196  0.44595737  0.31151482    -0.06370
C2504       C  0.88785984  0.42152823  0.31119618    -0.33800
C2505       C  0.86055171  0.42331250  0.30943815     0.35450
C2506       C  0.84832469  0.44977067  0.30728643    -0.06730
C2507       C  0.86385215  0.47419234  0.30892874    -0.33700
C2508       C  0.89113644  0.47237836  0.31148182     0.35360
H2509       H  0.89688675  0.40092875  0.31128901     0.15730
O2510       O  0.84603401  0.39897872  0.30870314    -0.61200
H2511       H  0.85471675  0.49467291  0.30893964     0.15740
O2512       O  0.90576875  0.49650503  0.31335883    -0.61290
H2513       H  0.90576478  0.00154337  0.33269112     0.42740
H2514       H  0.84379773  0.39350290  0.32774982     0.42690
C2515       C  0.59723404  0.44482581  0.30592820    -0.06370
C2516       C  0.60994828  0.46749317  0.31852957    -0.33800
C2517       C  0.63727729  0.46865550  0.31957623     0.35450
C2518       C  0.65230672  0.44755213  0.30691972    -0.06730
C2519       C  0.63957500  0.42464058  0.29471020    -0.33700
C2520       C  0.61222771  0.42309163  0.29431879     0.35360
H2521       H  0.59866141  0.48400149  0.32806266     0.15730
O2522       O  0.64900927  0.48959583  0.33439385    -0.61200
H2523       H  0.65084433  0.40816445  0.28511444     0.15740
O2524       O  0.60028342  0.40082558  0.28155913    -0.61290
H2525       H  0.59833605  0.38612319  0.29548929     0.42740
H2526       H  0.65883885  0.50105403  0.32133706     0.42690
C2527       C  0.84503409  0.05861664  0.30053628    -0.06370
C2528       C  0.85844069  0.04356804  0.28070138    -0.33800
C2529       C  0.88563850  0.04350270  0.27995510     0.35450
C2530       C  0.90044875  0.05875836  0.29903356    -0.06730
C2531       C  0.88704092  0.07470822  0.31840569    -0.33700
C2532       C  0.85963476  0.07486682  0.31917990     0.35360
H2533       H  0.84784361  0.03107333  0.26600164     0.15730
O2534       O  0.89752570  0.02818332  0.26032959    -0.61200
H2535       H  0.89777868  0.08706241  0.33308295     0.15740
O2536       O  0.84744999  0.09040551  0.33871624    -0.61290
H2537       H  0.84559394  0.10953108  0.33105310     0.42740
H2538       H  0.90386561  0.04260871  0.24775042     0.42690
C2539       C  0.59596972  0.05343576  0.30128547    -0.06370
C2540       C  0.60917693  0.06724019  0.32234053    -0.33800
C2541       C  0.63653940  0.06750934  0.32364899     0.35450
C2542       C  0.65143892  0.05417336  0.30338286    -0.06730
C2543       C  0.63819455  0.04073228  0.28222760    -0.33700
C2544       C  0.61089599  0.03968150  0.28137594     0.35360
H2545       H  0.59825695  0.07788809  0.33797257     0.15730
O2546       O  0.64835718  0.08016140  0.34530858    -0.61200
H2547       H  0.64913439  0.03073107  0.26634911     0.15740
O2548       O  0.59912119  0.02544628  0.26066651    -0.61290
H2549       H  0.59345684  0.00727912  0.26849557     0.42740
H2550       H  0.65009914  0.10030600  0.34041088     0.42690
C2551       C  0.84640497  0.44692632  0.20528582    -0.06370
C2552       C  0.85923849  0.45364158  0.22927546    -0.33800
C2553       C  0.88639662  0.45224955  0.23101840     0.35450
C2554       C  0.90151883  0.44458782  0.20857908    -0.06730
C2555       C  0.88871615  0.43738086  0.18460884    -0.33700
C2556       C  0.86142027  0.43864410  0.18276682     0.35360
H2557       H  0.84816961  0.45986749  0.24683699     0.15730
O2558       O  0.89795904  0.45727752  0.25520619    -0.61200
H2559       H  0.89990722  0.43122823  0.16710952     0.15740
O2560       O  0.84976639  0.43233145  0.15867489    -0.61290
H2561       H  0.84880325  0.45051014  0.14900418     0.42740
H2562       H  0.90261540  0.47749646  0.25507855     0.42690
C2563       C  0.59737505  0.44392933  0.20923258    -0.06370
C2564       C  0.61137517  0.45590742  0.23070521    -0.33800
C2565       C  0.63869816  0.45638402  0.23085103     0.35450
C2566       C  0.65285523  0.44453612  0.20939144    -0.06730
C2567       C  0.63886907  0.43167180  0.18826194    -0.33700
C2568       C  0.61146840  0.43128707  0.18806523     0.35360
H2569       H  0.60110370  0.46488057  0.24761081     0.15730
O2570       O  0.65134156  0.46925266  0.25178407    -0.61200
H2571       H  0.64914118  0.42262988  0.17130331     0.15740
O2572       O  0.59873773  0.41933522  0.16659832    -0.61290
H2573       H  0.59824913  0.39885369  0.17041524     0.42740
H2574       H  0.65364434  0.48905761  0.24618333     0.42690
C2575       C  0.84759624  0.05356515  0.20266850    -0.06370
C2576       C  0.86271820  0.02899701  0.20118431    -0.33800
C2577       C  0.88991198  0.03059027  0.19811489     0.35450
C2578       C  0.90261301  0.05694703  0.19745976    -0.06730
C2579       C  0.88739727  0.08150378  0.19793338    -0.33700
C2580       C  0.86013636  0.07993169  0.20031327     0.35360
H2581       H  0.85335483  0.00852301  0.20173534     0.15730
O2582       O  0.90396546  0.00627708  0.19555545    -0.61200
H2583       H  0.89671360  0.10203554  0.19746206     0.15740
O2584       O  0.84594717  0.10435575  0.20076679    -0.61290
H2585       H  0.84431968  0.10942140  0.22003251     0.42740
H2586       H  0.91129381  0.50280621  0.21362268     0.42690
C2587       C  0.59664394  0.05758753  0.20262724    -0.06370
C2588       C  0.60889021  0.03130565  0.20064655    -0.33800
C2589       C  0.63619294  0.02937095  0.20088401     0.35450
C2590       C  0.65173066  0.05354017  0.20492706    -0.06730
C2591       C  0.63957140  0.07992332  0.20606237    -0.33700
C2592       C  0.61228378  0.08210529  0.20466064     0.35360
H2593       H  0.59728326  0.01230890  0.19829896     0.15730
O2594       O  0.64763528  0.00400518  0.19551558    -0.61200
H2595       H  0.65125740  0.09889003  0.20813775     0.15740
O2596       O  0.60107407  0.10822912  0.20653818    -0.61290
H2597       H  0.60087915  0.11553626  0.18792777     0.42740
H2598       H  0.64930584  0.50310729  0.17569377     0.42690
C2599       C  0.79850955  0.40239021  0.07626298    -0.06370
C2600       C  0.81580478  0.40359142  0.05469717    -0.33800
C2601       C  0.82571735  0.37863028  0.04362519     0.35450
C2602       C  0.81824953  0.35213808  0.05422765    -0.06730
C2603       C  0.79849337  0.35093582  0.07339224    -0.33700
C2604       C  0.78844424  0.37583703  0.08429594     0.35360
H2605       H  0.82296508  0.42374171  0.04763108     0.15730
O2606       O  0.84314252  0.38028228  0.02277570    -0.61200
H2607       H  0.79207593  0.33079722  0.08119289     0.15740
O2608       O  0.76967471  0.37390843  0.10382271    -0.61290
H2609       H  0.75292604  0.37724885  0.09442463     0.42740
H2610       H  0.85978273  0.38673510  0.03094872     0.42690
C2611       C  0.80041016  0.10362048  0.08112736    -0.06370
C2612       C  0.79558891  0.12952198  0.09441423    -0.33800
C2613       C  0.80344618  0.15517523  0.08341692     0.35450
C2614       C  0.81655195  0.15533182  0.05888357    -0.06730
C2615       C  0.81949125  0.12987683  0.04443604    -0.33700
C2616       C  0.81133445  0.10409133  0.05532463     0.35360
H2617       H  0.78652198  0.12998275  0.11404046     0.15730
O2618       O  0.80062929  0.17953430  0.09805807    -0.61200
H2619       H  0.82956142  0.12983392  0.02531023     0.15740
O2620       O  0.81538769  0.07958202  0.04125217    -0.61290
H2621       H  0.83327345  0.07360035  0.04609620     0.42740
H2622       H  0.78341580  0.18710153  0.09271197     0.42690
C2623       C  0.82759682  0.34963206  0.43867452    -0.06370
C2624       C  0.84317980  0.36665636  0.42218656    -0.33800
C2625       C  0.83627805  0.39421714  0.41633003     0.35450
C2626       C  0.81307663  0.40543960  0.42650486    -0.06730
C2627       C  0.79703548  0.38858828  0.44287496    -0.33700
C2628       C  0.80438928  0.36085632  0.44934123     0.35360
H2629       H  0.86130699  0.35873000  0.41422779     0.15730
O2630       O  0.85175373  0.40968841  0.39939325    -0.61200
H2631       H  0.77841442  0.39654162  0.44976228     0.15740
O2632       O  0.78906107  0.34520207  0.46622466    -0.61290
H2633       H  0.79548368  0.34967111  0.48455149     0.42740
H2634       H  0.86355465  0.42063399  0.41134008     0.42690
C2635       C  0.81384652  0.09756214  0.42561043    -0.06370
C2636       C  0.79839240  0.11328366  0.44350984    -0.33800
C2637       C  0.80491687  0.14140215  0.44979336     0.35450
C2638       C  0.82683703  0.15403858  0.43770617    -0.06730
C2639       C  0.84202747  0.13813641  0.41982874    -0.33700
C2640       C  0.83586701  0.11019005  0.41402724     0.35360
H2641       H  0.78076130  0.10413268  0.45176109     0.15730
O2642       O  0.79062662  0.15576512  0.46862966    -0.61200
H2643       H  0.85950890  0.14717573  0.41109677     0.15740
O2644       O  0.85101338  0.09554028  0.39612030    -0.61290
H2645       H  0.86415086  0.08573301  0.40724292     0.42740
H2646       H  0.77605537  0.16433042  0.45850014     0.42690
C2647       C  0.94295223  0.30108336  0.40354114    -0.06370
C2648       C  0.96553279  0.29423402  0.38913864    -0.33800
C2649       C  0.96674996  0.29835725  0.36128441     0.35450
C2650       C  0.94530042  0.30949667  0.34730105    -0.06730
C2651       C  0.92221545  0.31466311  0.36136657    -0.33700
C2652       C  0.92086291  0.31046728  0.38914559     0.35360
H2653       H  0.98282408  0.28733054  0.39967876     0.15730
O2654       O  0.98996439  0.29444837  0.34832721    -0.61200
H2655       H  0.90583759  0.32423080  0.35118328     0.15740
O2656       O  0.89810144  0.31685392  0.40212423    -0.61290
H2657       H  0.89979703  0.33712452  0.40672880     0.42740
H2658       H  0.99924176  0.31278129  0.34987224     0.42690
C2659       C  0.94131012  0.30253560  0.10525469    -0.06370
C2660       C  0.96541553  0.30107201  0.11829952    -0.33800
C2661       C  0.96732757  0.30709646  0.14575773     0.35450
C2662       C  0.94489713  0.31328731  0.16094172    -0.06730
C2663       C  0.92052026  0.31278061  0.14830173    -0.33700
C2664       C  0.91857655  0.30725498  0.12065873     0.35360
H2665       H  0.98306388  0.29744690  0.10685164     0.15730
O2666       O  0.99149918  0.31012820  0.15708333    -0.61200
H2667       H  0.90319647  0.31849614  0.15947684     0.15740
O2668       O  0.89446273  0.30757343  0.10876552    -0.61290
H2669       H  0.88883692  0.28755675  0.10804203     0.42740
H2670       H  0.99745811  0.32930145  0.15203716     0.42690
C2671       C  0.93955607  0.19746914  0.40415457    -0.06370
C2672       C  0.92197485  0.17811459  0.39252026    -0.33800
C2673       C  0.92231986  0.17246401  0.36490306     0.35450
C2674       C  0.94002765  0.18662328  0.34804366    -0.06730
C2675       C  0.95530030  0.20845152  0.35903058    -0.33700
C2676       C  0.95567017  0.21342137  0.38692624     0.35360
H2677       H  0.90866717  0.16617575  0.40498177     0.15730
O2678       O  0.90623177  0.15183455  0.35465140    -0.61200
H2679       H  0.96862936  0.22000369  0.34633607     0.15740
O2680       O  0.97268492  0.23304243  0.39708960    -0.61290
H2681       H  0.98593643  0.22208871  0.40695876     0.42740
H2682       H  0.91395391  0.13371579  0.36040278     0.42690
C2683       C  0.93661323  0.20196257  0.10731343    -0.06370
C2684       C  0.95306581  0.21858638  0.12376565    -0.33800
C2685       C  0.95413179  0.21420266  0.15176846     0.35450
C2686       C  0.93923686  0.19237730  0.16341013    -0.06730
C2687       C  0.92068358  0.17842332  0.14749681    -0.33700
C2688       C  0.91906903  0.18314764  0.11992803     0.35360
H2689       H  0.96570526  0.23431367  0.11487148     0.15730
O2690       O  0.97035337  0.23063507  0.16729163    -0.61200
H2691       H  0.90893971  0.16168822  0.15608382     0.15740
O2692       O  0.90137647  0.16760033  0.10536375    -0.61290
H2693       H  0.88507518  0.17876688  0.10574008     0.42740
H2694       H  0.98682195  0.22003429  0.16903099     0.42690
C2695       C  0.68283616  0.35003500  0.45288631    -0.06370
C2696       C  0.70450259  0.34966822  0.43601256    -0.33800
C2697       C  0.71459520  0.37506018  0.42619673     0.35450
C2698       C  0.70289472  0.40101714  0.43342325    -0.06730
C2699       C  0.68370456  0.40150577  0.45315002    -0.33700
C2700       C  0.67370547  0.37622673  0.46304589     0.35360
H2701       H  0.71228356  0.32983020  0.42880117     0.15730
O2702       O  0.73534353  0.37434538  0.40880466    -0.61200
H2703       H  0.67501152  0.42128921  0.45930435     0.15740
O2704       O  0.65361763  0.37740498  0.48119425    -0.61290
H2705       H  0.66201620  0.37609253  0.49905408     0.42740
H2706       H  0.72815771  0.36731909  0.39151787     0.42690
C2707       C  0.69660190  0.09714012  0.43423572    -0.06370
C2708       C  0.67271633  0.09656624  0.44732194    -0.33800
C2709       C  0.66128973  0.12162531  0.45597518     0.35450
C2710       C  0.67411857  0.14793314  0.45185606    -0.06730
C2711       C  0.69932186  0.14803492  0.44117656    -0.33700
C2712       C  0.71050973  0.12281612  0.43212772     0.35360
H2713       H  0.66196026  0.07694238  0.44905321     0.15730
O2714       O  0.63730175  0.12001392  0.46807621    -0.61200
H2715       H  0.70978981  0.16771269  0.43858588     0.15740
O2716       O  0.73479115  0.12343601  0.42056524    -0.61290
H2717       H  0.73208467  0.13091668  0.40223462     0.42740
H2718       H  0.62459039  0.11793752  0.45316704     0.42690
C2719       C  0.68867144  0.40306237  0.08410054    -0.06370
C2720       C  0.67547725  0.38374417  0.10063162    -0.33800
C2721       C  0.67086582  0.35615820  0.09235491     0.35450
C2722       C  0.67844011  0.34736756  0.06670264    -0.06730
C2723       C  0.69174813  0.36636961  0.04989495    -0.33700
C2724       C  0.69714128  0.39410972  0.05856070     0.35360
H2725       H  0.66917521  0.38990571  0.12058556     0.15730
O2726       O  0.65761220  0.33822312  0.10903892    -0.61200
H2727       H  0.69696478  0.36004144  0.02967387     0.15740
O2728       O  0.71121674  0.41180691  0.04237607    -0.61290
H2729       H  0.69825516  0.42015053  0.03000646     0.42740
H2730       H  0.67131501  0.32768487  0.11873811     0.42690
C2731       C  0.69643708  0.10187384  0.08003332    -0.06370
C2732       C  0.67745796  0.10053529  0.06002766    -0.33800
C2733       C  0.66697113  0.12539337  0.04968106     0.35450
C2734       C  0.67566444  0.15200303  0.05933271    -0.06730
C2735       C  0.69685133  0.15325204  0.07685540    -0.33700
C2736       C  0.70723224  0.12839527  0.08731499     0.35360
H2737       H  0.66958582  0.08035203  0.05364105     0.15730
O2738       O  0.64804664  0.12348547  0.03025887    -0.61200
H2739       H  0.70434227  0.17344416  0.08369050     0.15740
O2740       O  0.72777652  0.13019975  0.10492466    -0.61290
H2741       H  0.72020178  0.13700603  0.12208014     0.42740
H2742       H  0.63193645  0.11771723  0.03980705     0.42690
C2743       C  0.56530459  0.30501059  0.39958879    -0.06370
C2744       C  0.55131133  0.28685040  0.38233418    -0.33800
C2745       C  0.55190305  0.29061660  0.35428855     0.35450
C2746       C  0.56512725  0.31392261  0.34337875    -0.06730
C2747       C  0.58151907  0.32980546  0.36019969    -0.33700
C2748       C  0.58165805  0.32568576  0.38793174     0.35360
H2749       H  0.53919943  0.27043120  0.39064878     0.15730
O2750       O  0.53750293  0.27310976  0.33805654    -0.61200
H2751       H  0.59210957  0.34769561  0.35215671     0.15740
O2752       O  0.59682343  0.34323349  0.40345492    -0.61290
H2753       H  0.58598417  0.36015887  0.40677530     0.42740
H2754       H  0.55045582  0.26112433  0.32868664     0.42690
C2755       C  0.56108273  0.30700976  0.10282087    -0.06370
C2756       C  0.54723372  0.28834658  0.11961043    -0.33800
C2757       C  0.54683043  0.29242036  0.14775456     0.35450
C2758       C  0.55945134  0.31607710  0.15923813    -0.06730
C2759       C  0.57556651  0.33249511  0.14279916    -0.33700
C2760       C  0.57648460  0.32825545  0.11508612     0.35360
H2761       H  0.53617419  0.27106242  0.11091772     0.15730
O2762       O  0.53221544  0.27469942  0.16339619    -0.61200
H2763       H  0.58569854  0.35060605  0.15119881     0.15740
O2764       O  0.59103058  0.34665313  0.10008632    -0.61290
H2765       H  0.60831847  0.33761535  0.09827065     0.42740
H2766       H  0.54430900  0.25950536  0.16876714     0.42690
C2767       C  0.55941092  0.18657293  0.34655718    -0.06370
C2768       C  0.57943740  0.17579855  0.36257116    -0.33800
C2769       C  0.58031104  0.18143103  0.39019700     0.35450
C2770       C  0.56083837  0.19823264  0.40239055    -0.06730
C2771       C  0.54207728  0.21076369  0.38589946    -0.33700
C2772       C  0.54104211  0.20482306  0.35831847     0.35360
H2773       H  0.59333264  0.16114284  0.35399871     0.15730
O2774       O  0.59999229  0.16979273  0.40506801    -0.61200
H2775       H  0.52732606  0.22401553  0.39465919     0.15740
O2776       O  0.52037333  0.21454098  0.34366044    -0.61290
H2777       H  0.50833091  0.19821643  0.34201643     0.42740
H2778       H  0.59416267  0.15027126  0.40891820     0.42690
C2779       C  0.54966647  0.20668519  0.10312183    -0.06370
C2780       C  0.52619068  0.19649948  0.11337922    -0.33800
C2781       C  0.52442725  0.18859224  0.14029780     0.35450
C2782       C  0.54581568  0.19258072  0.15790357    -0.06730
C2783       C  0.56869112  0.20497486  0.14805493    -0.33700
C2784       C  0.57075273  0.21189807  0.12073602     0.35360
H2785       H  0.50992919  0.19226056  0.10002279     0.15730
O2786       O  0.50242762  0.17469472  0.14877816    -0.61200
H2787       H  0.58552550  0.20737498  0.16101922     0.15740
O2788       O  0.59387390  0.22239703  0.11115454    -0.61290
H2789       H  0.59162524  0.24314491  0.11101632     0.42740
H2790       H  0.50363432  0.15541308  0.14108496     0.42690
N2791       N  0.65142134  0.21669099  0.53484214    -0.07020
N2792       N  0.67140428  0.20283114  0.54532056    -0.59140
N2793       N  0.63084775  0.19884894  0.97533749    -0.06700
N2794       N  0.63518792  0.17438703  0.96409117    -0.61270
N2795       N  0.65214322  0.21456109  0.97558774    -0.06300
N2796       N  0.67175104  0.19969925  0.96533766    -0.59120
N2797       N  0.63039649  0.20051961  0.53553453    -0.05980
N2798       N  0.63553678  0.17635448  0.54695321    -0.61620
C2799       C  0.66096936  0.17773812  0.55283750     0.95150
C2800       C  0.66055225  0.17465046  0.95816197     0.94930
N2801       N  0.55435296  0.22154590  0.97015071    -0.07210
N2802       N  0.54613441  0.22280303  0.94493355    -0.59720
N2803       N  0.57044448  0.20503077  0.53583031    -0.05330
N2804       N  0.57215014  0.19506628  0.56042935    -0.60970
N2805       N  0.55173749  0.22370797  0.53418574    -0.07240
N2806       N  0.54005120  0.22650798  0.55774435    -0.59990
N2807       N  0.57200110  0.20180191  0.97243410    -0.04970
N2808       N  0.57599573  0.18927778  0.94913630    -0.61060
Mn2809     Mn  0.60029983  0.20142955  0.50498977     1.18440
C2810       C  0.55983539  0.20240614  0.93203818     0.97230
C2811       C  0.55298173  0.20844962  0.57381462     0.97900
N2812       N  0.65500028  0.28566041  0.97424820    -0.07260
N2813       N  0.67615050  0.29884756  0.96519177    -0.63570
N2814       N  0.63402147  0.30490272  0.53266406    -0.06060
N2815       N  0.63971391  0.32808187  0.54585332    -0.64240
N2816       N  0.65356532  0.28691689  0.53348007    -0.06770
N2817       N  0.67339063  0.29842106  0.54684396    -0.63830
N2818       N  0.63485017  0.30280949  0.97248186    -0.05660
N2819       N  0.64155392  0.32658254  0.96122949    -0.64520
Mn2820     Mn  0.65391596  0.25094630  0.00447216     1.10660
C2821       C  0.66716959  0.32433580  0.95708189     0.98460
C2822       C  0.66396680  0.32385419  0.55475610     0.98530
N2823       N  0.55508912  0.28731767  0.53361534    -0.06770
N2824       N  0.54595653  0.28545666  0.55852727    -0.62150
N2825       N  0.57571937  0.30437655  0.96980021    -0.06090
N2826       N  0.58048248  0.31528830  0.94608028    -0.58880
N2827       N  0.55690489  0.28565379  0.96830704    -0.07400
N2828       N  0.54877144  0.28336272  0.94303964    -0.61710
N2829       N  0.57423759  0.30573469  0.53296358    -0.06390
N2830       N  0.57817301  0.31679850  0.55693260    -0.58900
Mn2831     Mn  0.55286143  0.25471512  0.50136567     1.20190
Mn2832     Mn  0.60406249  0.30469476  0.00200722     1.10090
Cl2833     Cl  0.60334743  0.25293054  0.50323882    -0.86870
C2834       C  0.56049760  0.30417924  0.57288090     0.95460
C2835       C  0.56364132  0.30224052  0.92939626     0.95260
N2836       N  0.94320036  0.21984455  0.53799957    -0.07020
N2837       N  0.95185883  0.22261182  0.56302671    -0.59140
N2838       N  0.92634150  0.19907359  0.97387787    -0.06700
N2839       N  0.92288455  0.18741714  0.95004709    -0.61270
N2840       N  0.94473196  0.21831946  0.97299434    -0.06300
N2841       N  0.95388161  0.22017417  0.94815038    -0.59120
N2842       N  0.92435970  0.20105900  0.53720294    -0.05980
N2843       N  0.92004022  0.19070463  0.56127316    -0.61620
C2844       C  0.93723332  0.20416667  0.57737443     0.95150
C2845       C  0.94011308  0.20060732  0.93401791     0.94930
N2846       N  0.84709332  0.21603673  0.97205260    -0.07210
N2847       N  0.82831219  0.20355752  0.95780634    -0.59720
N2848       N  0.86432531  0.19971698  0.53295185    -0.05330
N2849       N  0.85765892  0.17622530  0.54490294    -0.60970
N2850       N  0.84439113  0.21722306  0.53174657    -0.07240
N2851       N  0.82358855  0.20512471  0.54272420    -0.59990
N2852       N  0.86749290  0.19924304  0.97301638    -0.04970
N2853       N  0.86366908  0.17637945  0.95880678    -0.61060
Mn2854     Mn  0.89624463  0.19950329  0.50448544     1.18440
C2855       C  0.83950450  0.17910533  0.94924481     0.97230
C2856       C  0.83249901  0.17971994  0.55108215     0.97900
N2857       N  0.94595676  0.28250448  0.97252327    -0.07260
N2858       N  0.95596276  0.28017911  0.94805142    -0.63570
N2859       N  0.92553188  0.30196658  0.53626755    -0.06060
N2860       N  0.92194157  0.31280121  0.56043528    -0.64240
N2861       N  0.94461308  0.28363640  0.53652608    -0.06770
N2862       N  0.95457566  0.28195147  0.56096783    -0.63830
N2863       N  0.92765247  0.30171309  0.97273670    -0.05660
N2864       N  0.92489167  0.31271455  0.94868585    -0.64520
Mn2865     Mn  0.94621762  0.25098000  0.50494515     1.10660
C2866       C  0.94258778  0.29926287  0.93336598     0.98460
C2867       C  0.94023308  0.30024747  0.57564874     0.98530
N2868       N  0.84499516  0.28772591  0.53092768    -0.06770
N2869       N  0.82427482  0.30114942  0.54052909    -0.62150
N2870       N  0.86846169  0.30337368  0.97199510    -0.06090
N2871       N  0.86471351  0.32636647  0.95822154    -0.58880
N2872       N  0.84759512  0.28701274  0.97152991    -0.07400
N2873       N  0.82867067  0.29995173  0.95814535    -0.61710
N2874       N  0.86548979  0.30468785  0.53203349    -0.06390
N2875       N  0.85926283  0.32903003  0.54276393    -0.58900
Mn2876     Mn  0.84500383  0.25195054  0.50151057     1.20190
Mn2877     Mn  0.89739484  0.30316418  0.50347668     1.10090
Cl2878     Cl  0.89562458  0.25142298  0.50370415    -0.86870
C2879       C  0.83373288  0.32684534  0.54791277     0.95460
C2880       C  0.84013364  0.32423524  0.94951132     0.95260
N2881       N  0.71968465  0.03763800  0.60666664    -0.07020
N2882       N  0.70936278  0.05090362  0.58580576    -0.59140
N2883       N  0.77826528  0.05427737  0.62749862    -0.06700
N2884       N  0.78944612  0.07841672  0.62208372    -0.61270
N2885       N  0.77723997  0.03793849  0.60594212    -0.06300
N2886       N  0.78700335  0.05200221  0.58515554    -0.59120
N2887       N  0.71986747  0.05476893  0.62768515    -0.05980
N2888       N  0.70923173  0.07900151  0.62174325    -0.61620
C2889       C  0.70286592  0.07663781  0.59578657     0.95150
C2890       C  0.79470307  0.07721136  0.59582715     0.94930
N2891       N  0.78109079  0.03318348  0.70730443    -0.07210
N2892       N  0.80518126  0.03111181  0.71675102    -0.59720
N2893       N  0.71873353  0.05292001  0.68950771    -0.05330
N2894       N  0.69569178  0.06499204  0.68712796    -0.60970
N2895       N  0.71812391  0.03318978  0.70787833    -0.07240
N2896       N  0.69426637  0.03118906  0.71793556    -0.59990
N2897       N  0.78019333  0.05294049  0.68900855    -0.04970
N2898       N  0.80327366  0.06497648  0.68608746    -0.61060
Mn2899     Mn  0.74923961  0.05384171  0.65900583     1.18440
C2900       C  0.81871513  0.05144099  0.70365389     0.97230
C2901       C  0.68059941  0.05152115  0.70514172     0.97900
N2902       N  0.77674566  0.46677821  0.60477053    -0.07260
N2903       N  0.78621646  0.45355248  0.58329993    -0.63570
N2904       N  0.71872155  0.45046455  0.62748715    -0.06060
N2905       N  0.70551031  0.42734427  0.62302806    -0.64240
N2906       N  0.71908475  0.46669534  0.60609155    -0.06770
N2907       N  0.70690057  0.45339960  0.58602638    -0.63830
N2908       N  0.77729476  0.44954101  0.62549137    -0.05660
N2909       N  0.78772561  0.42535169  0.61878097    -0.64520
Mn2910     Mn  0.74820380  0.00223610  0.60502515     1.10660
C2911       C  0.79306633  0.42775116  0.59261706     0.98460
C2912       C  0.69810778  0.42905289  0.59739925     0.98530
N2913       N  0.71862015  0.46848336  0.70809403    -0.06770
N2914       N  0.69567161  0.46843676  0.72024917    -0.62150
N2915       N  0.77994154  0.45028474  0.68721548    -0.06090
N2916       N  0.80287195  0.43817985  0.68432301    -0.58880
N2917       N  0.78045878  0.46874209  0.70692175    -0.07400
N2918       N  0.80395285  0.46943123  0.71791577    -0.61710
N2919       N  0.71865104  0.44981668  0.68860962    -0.06390
N2920       N  0.69590211  0.43676008  0.68708886    -0.58900
Mn2921     Mn  0.74956524  0.50106113  0.70915156     1.20190
Mn2922     Mn  0.74873843  0.44994280  0.65761218     1.10090
Cl2923     Cl  0.74895896  0.50177486  0.65742877    -0.86870
C2924       C  0.68167884  0.44828211  0.70710647     0.95460
C2925       C  0.81769925  0.45010385  0.70368279     0.95260
N2926       N  0.71782716  0.03300432  0.80308600    -0.07020
N2927       N  0.69451418  0.03206771  0.79168309    -0.59140
N2928       N  0.77920254  0.05355834  0.82092513    -0.06700
N2929       N  0.80183289  0.06680953  0.82244015    -0.61270
N2930       N  0.77956833  0.03447420  0.80179804    -0.06300
N2931       N  0.80261659  0.03444518  0.78989610    -0.59120
N2932       N  0.71796584  0.05179454  0.82253243    -0.05980
N2933       N  0.69492115  0.06387957  0.82476548    -0.61620
C2934       C  0.68038882  0.05163203  0.80527359     0.95150
C2935       C  0.81631227  0.05493323  0.80284945     0.94930
N2936       N  0.78043021  0.03662314  0.90298106    -0.07210
N2937       N  0.79411268  0.04860169  0.92266388    -0.59720
N2938       N  0.72149088  0.05308267  0.88466590    -0.05330
N2939       N  0.71003464  0.07663353  0.89167333    -0.60970
N2940       N  0.72247660  0.03545903  0.90506758    -0.07240
N2941       N  0.71190228  0.04747862  0.92655272    -0.59990
N2942       N  0.77977474  0.05373232  0.88222049    -0.04970
N2943       N  0.79356644  0.07652792  0.88676254    -0.61060
Mn2944     Mn  0.74946159  0.05329732  0.85215228     1.18440
C2945       C  0.80261993  0.07315593  0.91169153     0.97230
C2946       C  0.70408208  0.07300793  0.91756526     0.97900
N2947       N  0.78160354  0.46978852  0.80274525    -0.07260
N2948       N  0.80576203  0.47231698  0.79343057    -0.63570
N2949       N  0.71929386  0.44912793  0.82214150    -0.06060
N2950       N  0.69626833  0.43689374  0.82504443    -0.64240
N2951       N  0.71851145  0.46830769  0.80327676    -0.06770
N2952       N  0.69465313  0.46958032  0.79319562    -0.63830
N2953       N  0.78080370  0.44983404  0.82088372    -0.05660
N2954       N  0.80392471  0.43811098  0.82374543    -0.64520
Mn2955     Mn  0.74939904  0.00121158  0.80110620     1.10660
C2956       C  0.81937919  0.45201320  0.80640162     0.98460
C2957       C  0.68113044  0.44946664  0.80656487     0.98530
N2958       N  0.72336732  0.46536125  0.90486103    -0.06770
N2959       N  0.71451985  0.45211088  0.92644859    -0.62150
N2960       N  0.78067373  0.44903016  0.88212445    -0.06090
N2961       N  0.79387836  0.42609849  0.88709050    -0.59300
N2962       N  0.78092196  0.46627437  0.90300092    -0.07400
N2963       N  0.79370432  0.45429594  0.92310999    -0.61710
N2964       N  0.72241301  0.44805434  0.88398716    -0.06390
N2965       N  0.71242969  0.42366839  0.89079945    -0.58900
Mn2966     Mn  0.75179974  0.00100674  0.90476819     1.20190
Mn2967     Mn  0.75063856  0.44881685  0.85167468     1.10090
Cl2968     Cl  0.75024793  0.00110584  0.85267070    -0.86870
C2969       C  0.70771779  0.42618679  0.91709840     0.95460
C2970       C  0.80207249  0.42955067  0.91237061     0.95260
N2971       N  0.52861070  0.16457701  0.72031147    -0.07020
N2972       N  0.53765117  0.18697440  0.70728857    -0.59140
N2973       N  0.97053847  0.14348427  0.70401286    -0.06700
N2974       N  0.95688465  0.14964187  0.68259820    -0.61270
N2975       N  0.97085608  0.16487828  0.72106830    -0.06300
N2976       N  0.95827152  0.18659339  0.71040063    -0.59120
N2977       N  0.52998925  0.14237875  0.70430136    -0.05980
N2978       N  0.54136203  0.14889602  0.68159215    -0.61620
C2979       C  0.54602764  0.17664001  0.68326268     0.95150
C2980       C  0.94909094  0.17630213  0.68662562     0.94930
N2981       N  0.96825818  0.05735367  0.71933842    -0.07210
N2982       N  0.94531583  0.04455058  0.71858091    -0.59720
N2983       N  0.53039571  0.07772734  0.70338359    -0.05330
N2984       N  0.55387709  0.08040440  0.69276187    -0.60970
N2985       N  0.52987503  0.05661352  0.72029444    -0.07240
N2986       N  0.55300890  0.04437518  0.72122820    -0.59990
N2987       N  0.96850602  0.07852014  0.70252181    -0.04970
N2988       N  0.94569770  0.08079196  0.69034575    -0.61060
Mn2989     Mn  0.49983785  0.11008408  0.70331045     1.18440
C2990       C  0.93144636  0.05916909  0.70017104     0.97230
C2991       C  0.56776778  0.05928154  0.70376313     0.97900
N2992       N  0.97115934  0.16281618  0.78841952    -0.07260
N2993       N  0.95846560  0.18371806  0.80058718    -0.63570
N2994       N  0.52985870  0.13938474  0.80312674    -0.06060
N2995       N  0.54401186  0.14418760  0.82464098    -0.64240
N2996       N  0.52963652  0.16167561  0.78739718    -0.06770
N2997       N  0.54294623  0.18246156  0.79905263    -0.63830
N2998       N  0.97059843  0.14033682  0.80386245    -0.05660
N2999       N  0.95680490  0.14501498  0.82558505    -0.64520
Mn3000     Mn  0.00004228  0.16440111  0.75443606     1.10660
C3001       C  0.94898354  0.17184241  0.82347234     0.98460
C3002       C  0.55235691  0.17087212  0.82199984     0.98530
N3003       N  0.52938701  0.05481564  0.78170555    -0.06770
N3004       N  0.55245422  0.04259714  0.78007567    -0.62150
N3005       N  0.96792183  0.07570678  0.80020664    -0.06090
N3006       N  0.94448575  0.07854511  0.81096332    -0.58880
N3007       N  0.96757471  0.05620215  0.78138010    -0.07400
N3008       N  0.94387095  0.04543536  0.77916205    -0.61710
N3009       N  0.52973915  0.07433651  0.80047567    -0.06390
N3010       N  0.55296277  0.07562572  0.81197065    -0.58900
Mn3011     Mn  0.49868303  0.05473949  0.75072623     1.20190
Mn3012     Mn  0.49955661  0.10696904  0.80238762     1.10090
Cl3013     Cl  0.49946986  0.10931036  0.75273013    -0.86870
C3014       C  0.56702216  0.05557545  0.79919942     0.95460
C3015       C  0.92956612  0.05942134  0.79777056     0.95260
N3016       N  0.53032255  0.44632366  0.72659056    -0.07020
N3017       N  0.55403128  0.45718246  0.72887330    -0.59140
N3018       N  0.96832932  0.42657373  0.70824744    -0.06700
N3019       N  0.94500271  0.42426293  0.69711637    -0.61270
N3020       N  0.96826027  0.44592370  0.72719553    -0.06300
N3021       N  0.94474582  0.45694923  0.72937963    -0.59120
N3022       N  0.53007811  0.42674570  0.70782251    -0.05980
N3023       N  0.55350762  0.42408583  0.69706315    -0.61620
C3024       C  0.56832901  0.44332212  0.71020153     0.95150
C3025       C  0.93042779  0.44340961  0.71039223     0.94930
N3026       N  0.97015854  0.33950419  0.72118317    -0.07210
N3027       N  0.95808641  0.31813468  0.70906912    -0.59720
N3028       N  0.52846297  0.36181019  0.70409449    -0.05330
N3029       N  0.54168096  0.35716435  0.68200428    -0.60970
N3030       N  0.52841119  0.33931227  0.71952722    -0.07240
N3031       N  0.54085022  0.31841253  0.70700544    -0.59990
N3032       N  0.96918030  0.36185974  0.70558762    -0.04970
N3033       N  0.95556714  0.35646003  0.68382475    -0.61060
Mn3034     Mn  0.99902211  0.39479311  0.70602617     1.18440
C3035       C  0.94844322  0.32932307  0.68604283     0.97230
C3036       C  0.54958111  0.33031855  0.68382407     0.97900
N3037       N  0.96899879  0.44517879  0.78905610    -0.07260
N3038       N  0.94613009  0.45800637  0.78977977    -0.63570
N3039       N  0.53109066  0.42476555  0.80507828    -0.06060
N3040       N  0.55447536  0.42236696  0.81595632    -0.64240
N3041       N  0.53075896  0.44568329  0.78796897    -0.06770
N3042       N  0.55394240  0.45804287  0.78708136    -0.63830
N3043       N  0.96915068  0.42414597  0.80604425    -0.05660
N3044       N  0.94637227  0.42200250  0.81832590    -0.64520
Mn3045     Mn  0.99951478  0.44731204  0.75760016     1.10660
C3046       C  0.93224179  0.44354513  0.80838864     0.98460
C3047       C  0.56843647  0.44356403  0.80497990     0.98530
N3048       N  0.52997007  0.33845906  0.78682341    -0.06770
N3049       N  0.54425142  0.31774665  0.79702922    -0.62150
N3050       N  0.97083710  0.35931224  0.80467133    -0.06090
N3051       N  0.95766446  0.35309107  0.82642422    -0.58880
N3052       N  0.97149844  0.33762446  0.78800155    -0.07400
N3053       N  0.95962414  0.31575733  0.79930899    -0.61710
N3054       N  0.53017828  0.36010404  0.80356022    -0.06390
N3055       N  0.54526896  0.35520886  0.82419605    -0.58900
Mn3056     Mn  0.00005376  0.33769355  0.75391144     1.20190
Mn3057     Mn  0.00026025  0.39244009  0.80520703     1.10090
Cl3058     Cl  0.99971033  0.39280119  0.75567567    -0.86870
C3059       C  0.55422910  0.32903637  0.82010129     0.95460
C3060       C  0.95043737  0.32612435  0.82300561     0.95260
C3061       C  0.90346195  0.44595746  0.81151470    -0.06370
C3062       C  0.88785984  0.42152830  0.81119606    -0.33800
C3063       C  0.86055171  0.42331256  0.80943803     0.35450
C3064       C  0.84832467  0.44977072  0.80728632    -0.06730
C3065       C  0.86385212  0.47419240  0.80892863    -0.33700
C3066       C  0.89113640  0.47237843  0.81148170     0.35360
H3067       H  0.89688676  0.40092883  0.81128888     0.15730
O3068       O  0.84603402  0.39897876  0.80870302    -0.61200
H3069       H  0.85471670  0.49467296  0.80893954     0.15740
O3070       O  0.90576870  0.49650511  0.81335872    -0.61290
H3071       H  0.90576475  0.00154345  0.83269100     0.42740
H3072       H  0.84379774  0.39350294  0.82774971     0.42690
C3073       C  0.59723402  0.44482603  0.80592804    -0.06370
C3074       C  0.60994830  0.46749325  0.81852960    -0.33800
C3075       C  0.63727731  0.46865552  0.81957625     0.35450
C3076       C  0.65230670  0.44755222  0.80691957    -0.06730
C3077       C  0.63957494  0.42464081  0.79470987    -0.33700
C3078       C  0.61222764  0.42309193  0.79431845     0.35360
H3079       H  0.59866146  0.48400151  0.82806283     0.15730
O3080       O  0.64900934  0.48959570  0.83439402    -0.61200
H3081       H  0.65084423  0.40816474  0.78511398     0.15740
O3082       O  0.60028332  0.40082602  0.78155861    -0.61290
H3083       H  0.59833589  0.38612351  0.79548866     0.42740
H3084       H  0.65883890  0.50105403  0.82133729     0.42690
C3085       C  0.84503404  0.05861666  0.80053619    -0.06370
C3086       C  0.85844063  0.04356810  0.78070124    -0.33800
C3087       C  0.88563843  0.04350275  0.77995496     0.35450
C3088       C  0.90044870  0.05875835  0.79903345    -0.06730
C3089       C  0.88704089  0.07470818  0.81840561    -0.33700
C3090       C  0.85963472  0.07486678  0.81917984     0.35360
H3091       H  0.84784353  0.03107344  0.76600148     0.15730
O3092       O  0.89752562  0.02818343  0.76032940    -0.61200
H3093       H  0.89777865  0.08706232  0.83308290     0.15740
O3094       O  0.84744996  0.09040543  0.83871622    -0.61290
H3095       H  0.84559392  0.10953102  0.83105313     0.42740
H3096       H  0.90386555  0.04260886  0.74775028     0.42690
C3097       C  0.59596966  0.05343562  0.80128542    -0.06370
C3098       C  0.60917686  0.06724001  0.82234051    -0.33800
C3099       C  0.63653933  0.06750918  0.82364897     0.35450
C3100       C  0.65143886  0.05417325  0.80338282    -0.06730
C3101       C  0.63819450  0.04073221  0.78222754    -0.33700
C3102       C  0.61089594  0.03968141  0.78137586     0.35360
H3103       H  0.59825687  0.07788787  0.83797256     0.15730
O3104       O  0.64835710  0.08016121  0.84530858    -0.61200
H3105       H  0.64913435  0.03073105  0.76634903     0.15740
O3106       O  0.59912116  0.02544623  0.76066640    -0.61290
H3107       H  0.59345666  0.00727913  0.76849547     0.42740
H3108       H  0.65009903  0.10030582  0.84041092     0.42690
C3109       C  0.84640495  0.44692630  0.70528574    -0.06370
C3110       C  0.85923847  0.45364159  0.72927536    -0.33800
C3111       C  0.88639661  0.45224958  0.73101829     0.35450
C3112       C  0.90151880  0.44458783  0.70857897    -0.06730
C3113       C  0.88871612  0.43738084  0.68460875    -0.33700
C3114       C  0.86142024  0.43864406  0.68276674     0.35360
H3115       H  0.84816961  0.45986752  0.74683690     0.15730
O3116       O  0.89795904  0.45727759  0.75520608    -0.61200
H3117       H  0.89990718  0.43122819  0.66710943     0.15740
O3118       O  0.84976635  0.43233139  0.65867482    -0.61290
H3119       H  0.84880321  0.45051006  0.64900409     0.42740
H3120       H  0.90261535  0.47749655  0.75507843     0.42690
C3121       C  0.59737502  0.44392948  0.70923243    -0.06370
C3122       C  0.61137513  0.45590761  0.73070505    -0.33800
C3123       C  0.63869812  0.45638420  0.73085090     0.35450
C3124       C  0.65285520  0.44453621  0.70939135    -0.06730
C3125       C  0.63886905  0.43167186  0.68826187    -0.33700
C3126       C  0.61146838  0.43128716  0.68806513     0.35360
H3127       H  0.60110365  0.46488080  0.74761062     0.15730
O3128       O  0.65134150  0.46925291  0.75178391    -0.61200
H3129       H  0.64914117  0.42262987  0.67130327     0.15740
O3130       O  0.59873772  0.41933527  0.66659823    -0.61290
H3131       H  0.59824910  0.39885375  0.67041520     0.42740
H3132       H  0.65364445  0.48905779  0.74618303     0.42690
C3133       C  0.84759623  0.05356515  0.70266838    -0.06370
C3134       C  0.86271819  0.02899702  0.70118418    -0.33800
C3135       C  0.88991197  0.03059027  0.69811474     0.35450
C3136       C  0.90261299  0.05694703  0.69745962    -0.06730
C3137       C  0.88739726  0.08150378  0.69793324    -0.33700
C3138       C  0.86013635  0.07993169  0.70031315     0.35360
H3139       H  0.85335482  0.00852302  0.70173521     0.15730
O3140       O  0.90396544  0.00627708  0.69555530    -0.61200
H3141       H  0.89671360  0.10203554  0.69746193     0.15740
O3142       O  0.84594717  0.10435575  0.70076669    -0.61290
H3143       H  0.84431968  0.10942139  0.72003241     0.42740
H3144       H  0.91129380  0.50280621  0.71362253     0.42690
C3145       C  0.59664393  0.05758745  0.70262722    -0.06370
C3146       C  0.60889021  0.03130560  0.70064635    -0.33800
C3147       C  0.63619294  0.02937091  0.70088381     0.35450
C3148       C  0.65173064  0.05354011  0.70492706    -0.06730
C3149       C  0.63957136  0.07992325  0.70606258    -0.33700
C3150       C  0.61228375  0.08210521  0.70466084     0.35360
H3151       H  0.59728328  0.01230886  0.69829859     0.15730
O3152       O  0.64763531  0.00400519  0.69551518    -0.61200
H3153       H  0.65125735  0.09888994  0.70813812     0.15740
O3154       O  0.60107402  0.10822901  0.70653858    -0.61290
H3155       H  0.60087911  0.11553632  0.68792822     0.42740
H3156       H  0.64930588  0.50310748  0.67569338     0.42690
C3157       C  0.79850952  0.40239024  0.57626293    -0.06370
C3158       C  0.81580480  0.40359145  0.55469716    -0.33800
C3159       C  0.82571739  0.37863031  0.54362520     0.35450
C3160       C  0.81824955  0.35213811  0.55422765    -0.06730
C3161       C  0.79849334  0.35093586  0.57339220    -0.33700
C3162       C  0.78844419  0.37583707  0.58429587     0.35360
H3163       H  0.82296512  0.42374174  0.54763108     0.15730
O3164       O  0.84314259  0.38028230  0.52277574    -0.61200
H3165       H  0.79207588  0.33079726  0.58119283     0.15740
O3166       O  0.76967462  0.37390847  0.60382259    -0.61290
H3167       H  0.75292597  0.37724891  0.59442449     0.42740
H3168       H  0.85978280  0.38673512  0.53094880     0.42690
C3169       C  0.80041010  0.10362049  0.58112734    -0.06370
C3170       C  0.79558881  0.12952198  0.59441419    -0.33800
C3171       C  0.80344610  0.15517524  0.58341690     0.35450
C3172       C  0.81655192  0.15533184  0.55888359    -0.06730
C3173       C  0.81949126  0.12987685  0.54443606    -0.33700
C3174       C  0.81133444  0.10409135  0.55532463     0.35360
H3175       H  0.78652184  0.12998275  0.61404040     0.15730
O3176       O  0.80062917  0.17953431  0.59805805    -0.61200
H3177       H  0.82956146  0.12983394  0.52531026     0.15740
O3178       O  0.81538771  0.07958204  0.54125217    -0.61290
H3179       H  0.83327348  0.07360038  0.54609624     0.42740
H3180       H  0.78341569  0.18710154  0.59271192     0.42690
C3181       C  0.82759682  0.34963206  0.93867445    -0.06370
C3182       C  0.84317980  0.36665637  0.92218650    -0.33800
C3183       C  0.83627803  0.39421714  0.91632996     0.35450
C3184       C  0.81307659  0.40543958  0.92650477    -0.06730
C3185       C  0.79703544  0.38858825  0.94287485    -0.33700
C3186       C  0.80438926  0.36085630  0.94934113     0.35360
H3187       H  0.86130700  0.35873002  0.91422776     0.15730
O3188       O  0.85175372  0.40968842  0.89939320    -0.61200
H3189       H  0.77841437  0.39654158  0.94976215     0.15740
O3190       O  0.78906104  0.34520204  0.96622455    -0.61290
H3191       H  0.79548363  0.34967108  0.98455139     0.42740
H3192       H  0.86355461  0.42063401  0.91134003     0.42690
C3193       C  0.81384649  0.09756214  0.92561036    -0.06370
C3194       C  0.79839236  0.11328368  0.94350974    -0.33800
C3195       C  0.80491686  0.14140217  0.94979327     0.35450
C3196       C  0.82683707  0.15403856  0.93770611    -0.06730
C3197       C  0.84202752  0.13813635  0.91982872    -0.33700
C3198       C  0.83586702  0.11019000  0.91402720     0.35360
H3199       H  0.78076124  0.10413274  0.95176096     0.15730
O3200       O  0.79062660  0.15576517  0.96862953    -0.61200
H3201       H  0.85950897  0.14717564  0.91109677     0.15740
O3202       O  0.85101339  0.09554021  0.89612029    -0.61290
H3203       H  0.86415084  0.08573291  0.90724294     0.42740
H3204       H  0.77605538  0.16433048  0.95849998     0.42690
C3205       C  0.94295228  0.30108347  0.90354112    -0.06370
C3206       C  0.96553279  0.29423400  0.88913861    -0.33800
C3207       C  0.96674998  0.29835725  0.86128438     0.35450
C3208       C  0.94530050  0.30949681  0.84730104    -0.06730
C3209       C  0.92221556  0.31466338  0.86136657    -0.33700
C3210       C  0.92086301  0.31046754  0.88914559     0.35360
H3211       H  0.98282406  0.28733041  0.89967872     0.15730
O3212       O  0.98996439  0.29444823  0.84832717    -0.61200
H3213       H  0.90583775  0.32423119  0.85118330     0.15740
O3214       O  0.89810158  0.31685434  0.90212424    -0.61290
H3215       H  0.89979728  0.33712493  0.90672882     0.42740
H3216       H  0.99924181  0.31278113  0.84987213     0.42690
C3217       C  0.94131016  0.30253558  0.60525471    -0.06370
C3218       C  0.96541557  0.30107195  0.61829954    -0.33800
C3219       C  0.96732762  0.30709640  0.64575775     0.35450
C3220       C  0.94489719  0.31328729  0.66094174    -0.06730
C3221       C  0.92052032  0.31278062  0.64830175    -0.33700
C3222       C  0.91857659  0.30725499  0.62065876     0.35360
H3223       H  0.98306391  0.29744682  0.60685165     0.15730
O3224       O  0.99149923  0.31012811  0.65708335    -0.61200
H3225       H  0.90319654  0.31849618  0.65947686     0.15740
O3226       O  0.89446278  0.30757347  0.60876555    -0.61290
H3227       H  0.88883694  0.28755679  0.60804206     0.42740
H3228       H  0.99745818  0.32930136  0.65203720     0.42690
C3229       C  0.93955618  0.19746912  0.90415456    -0.06370
C3230       C  0.92197494  0.17811459  0.89252024    -0.33800
C3231       C  0.92231995  0.17246400  0.86490305     0.35450
C3232       C  0.94002776  0.18662324  0.84804365    -0.06730
C3233       C  0.95530045  0.20845146  0.85903057    -0.33700
C3234       C  0.95567031  0.21342131  0.88692623     0.35360
H3235       H  0.90866723  0.16617579  0.90498175     0.15730
O3236       O  0.90623184  0.15183457  0.85465138    -0.61200
H3237       H  0.96862952  0.22000360  0.84633607     0.15740
O3238       O  0.97268510  0.23304233  0.89708960    -0.61290
H3239       H  0.98593660  0.22208857  0.90695874     0.42740
H3240       H  0.91395395  0.13371579  0.86040277     0.42690
C3241       C  0.93661325  0.20196258  0.60731346    -0.06370
C3242       C  0.95306587  0.21858636  0.62376566    -0.33800
C3243       C  0.95413187  0.21420264  0.65176847     0.35450
C3244       C  0.93923691  0.19237733  0.66341015    -0.06730
C3245       C  0.92068358  0.17842339  0.64749685    -0.33700
C3246       C  0.91906903  0.18314770  0.61992808     0.35360
H3247       H  0.96570535  0.23431361  0.61487147     0.15730
O3248       O  0.97035350  0.23063502  0.66729161    -0.61200
H3249       H  0.90893968  0.16168831  0.65608388     0.15740
O3250       O  0.90137642  0.16760043  0.60536381    -0.61290
H3251       H  0.88507516  0.17876703  0.60574015     0.42740
H3252       H  0.98682200  0.22003411  0.66903113     0.42690
C3253       C  0.68283610  0.35003501  0.95288628    -0.06370
C3254       C  0.70450249  0.34966821  0.93601249    -0.33800
C3255       C  0.71459510  0.37506016  0.92619661     0.35450
C3256       C  0.70289465  0.40101713  0.93342313    -0.06730
C3257       C  0.68370452  0.40150579  0.95314993    -0.33700
C3258       C  0.67370543  0.37622676  0.96304584     0.35360
H3259       H  0.71228346  0.32983018  0.92880111     0.15730
O3260       O  0.73534341  0.37434533  0.90880451    -0.61200
H3261       H  0.67501149  0.42128924  0.95930426     0.15740
O3262       O  0.65361762  0.37740504  0.98119424    -0.61290
H3263       H  0.66201622  0.37609264  0.99905405     0.42740
H3264       H  0.72815756  0.36731903  0.89151774     0.42690
C3265       C  0.69660191  0.09714014  0.93423565    -0.06370
C3266       C  0.67271638  0.09656625  0.94732195    -0.33800
C3267       C  0.66128979  0.12162531  0.95597523     0.35450
C3268       C  0.67411861  0.14793315  0.95185606    -0.06730
C3269       C  0.69932186  0.14803494  0.94117647    -0.33700
C3270       C  0.71050971  0.12281614  0.93212761     0.35360
H3271       H  0.66196032  0.07694238  0.94905326     0.15730
O3272       O  0.63730185  0.12001391  0.96807634    -0.61200
H3273       H  0.70978979  0.16771272  0.93858576     0.15740
O3274       O  0.73479110  0.12343605  0.92056504    -0.61290
H3275       H  0.73208457  0.13091672  0.90223443     0.42740
H3276       H  0.62459044  0.11793748  0.95316720     0.42690
C3277       C  0.68867145  0.40306236  0.58410051    -0.06370
C3278       C  0.67547728  0.38374415  0.60063159    -0.33800
C3279       C  0.67086588  0.35615817  0.59235487     0.35450
C3280       C  0.67844017  0.34736755  0.56670260    -0.06730
C3281       C  0.69174817  0.36636962  0.54989491    -0.33700
C3282       C  0.69714129  0.39410973  0.55856066     0.35360
H3283       H  0.66917523  0.38990567  0.62058553     0.15730
O3284       O  0.65761226  0.33822307  0.60903887    -0.61200
H3285       H  0.69696483  0.36004147  0.52967382     0.15740
O3286       O  0.71121673  0.41180694  0.54237604    -0.61290
H3287       H  0.69825515  0.42015054  0.53000643     0.42740
H3288       H  0.67131508  0.32768483  0.61873805     0.42690
C3289       C  0.69643703  0.10187384  0.58003331    -0.06370
C3290       C  0.67745792  0.10053530  0.56002764    -0.33800
C3291       C  0.66697110  0.12539338  0.54968104     0.35450
C3292       C  0.67566442  0.15200304  0.55933269    -0.06730
C3293       C  0.69685130  0.15325204  0.57685539    -0.33700
C3294       C  0.70723220  0.12839527  0.58731498     0.35360
H3295       H  0.66958578  0.08035204  0.55364103     0.15730
O3296       O  0.64804662  0.12348549  0.53025883    -0.61200
H3297       H  0.70434224  0.17344416  0.58369050     0.15740
O3298       O  0.72777647  0.13019974  0.60492467    -0.61290
H3299       H  0.72020173  0.13700603  0.62208013     0.42740
H3300       H  0.63193642  0.11771725  0.53980701     0.42690
C3301       C  0.56530454  0.30501076  0.89958885    -0.06370
C3302       C  0.55131138  0.28685054  0.88233419    -0.33800
C3303       C  0.55190313  0.29061681  0.85428856     0.35450
C3304       C  0.56512725  0.31392290  0.84337882    -0.06730
C3305       C  0.58151896  0.32980581  0.86019984    -0.33700
C3306       C  0.58165792  0.32568606  0.88793187     0.35360
H3307       H  0.53919956  0.27043125  0.89064873     0.15730
O3308       O  0.53750310  0.27310994  0.83805650    -0.61200
H3309       H  0.59210940  0.34769603  0.85215691     0.15740
O3310       O  0.59682316  0.34323386  0.90345512    -0.61290
H3311       H  0.58598380  0.36015915  0.90677553     0.42740
H3312       H  0.55045606  0.26112452  0.82868667     0.42690
C3313       C  0.56108282  0.30700990  0.60282082    -0.06370
C3314       C  0.54723387  0.28834670  0.61961041    -0.33800
C3315       C  0.54683058  0.29242049  0.64775454     0.35450
C3316       C  0.55945145  0.31607727  0.65923809    -0.06730
C3317       C  0.57556657  0.33249532  0.64279909    -0.33700
C3318       C  0.57648465  0.32825564  0.61508605     0.35360
H3319       H  0.53617436  0.27106251  0.61091772     0.15730
O3320       O  0.53221565  0.27469953  0.66339620    -0.61200
H3321       H  0.58569857  0.35060628  0.65119872     0.15740
O3322       O  0.59103057  0.34665336  0.60008622    -0.61290
H3323       H  0.60831850  0.33761566  0.59827059     0.42740
H3324       H  0.54430924  0.25950548  0.66876710     0.42690
C3325       C  0.55941098  0.18657273  0.84655720    -0.06370
C3326       C  0.57943735  0.17579820  0.86257124    -0.33800
C3327       C  0.58031097  0.18143070  0.89019706     0.35450
C3328       C  0.56083839  0.19823247  0.90239056    -0.06730
C3329       C  0.54207742  0.21076366  0.88589942    -0.33700
C3330       C  0.54104227  0.20482302  0.85831843     0.35360
H3331       H  0.59333251  0.16114237  0.85399882     0.15730
O3332       O  0.59999211  0.16979223  0.90506813    -0.61200
H3333       H  0.52732627  0.22401561  0.89465911     0.15740
O3334       O  0.52037360  0.21454110  0.84366034    -0.61290
H3335       H  0.50833110  0.19821662  0.84201624     0.42740
H3336       H  0.59416231  0.15027082  0.90891834     0.42690
C3337       C  0.54966649  0.20668522  0.60312183    -0.06370
C3338       C  0.52619072  0.19649947  0.61337921    -0.33800
C3339       C  0.52442730  0.18859220  0.64029778     0.35450
C3340       C  0.54581573  0.19258067  0.65790355    -0.06730
C3341       C  0.56869115  0.20497484  0.64805493    -0.33700
C3342       C  0.57075275  0.21189809  0.62073602     0.35360
H3343       H  0.50992923  0.19226056  0.60002278     0.15730
O3344       O  0.50242767  0.17469465  0.64877812    -0.61200
H3345       H  0.58552553  0.20737496  0.66101922     0.15740
O3346       O  0.59387391  0.22239708  0.61115455    -0.61290
H3347       H  0.59162524  0.24314495  0.61101636     0.42740
H3348       H  0.50363438  0.15541301  0.64108490     0.42690
N3349       N  0.65142231  0.71669002  0.03484433    -0.07020
N3350       N  0.67140536  0.70283023  0.04532264    -0.59140
N3351       N  0.63084830  0.69884352  0.47534191    -0.06700
N3352       N  0.63518794  0.67438135  0.46409591    -0.61270
N3353       N  0.65214347  0.71455617  0.47558970    -0.06300
N3354       N  0.67175062  0.69969479  0.46533775    -0.59120
N3355       N  0.63039713  0.70051925  0.03553857    -0.05980
N3356       N  0.63553743  0.67635462  0.04695831    -0.61620
C3357       C  0.66097031  0.67773789  0.05284142     0.95150
C3358       C  0.66055165  0.67464555  0.45816383     0.94930
N3359       N  0.55435387  0.72154114  0.47015275    -0.07210
N3360       N  0.54613536  0.72279578  0.44493551    -0.59720
N3361       N  0.57044490  0.70503284  0.03583404    -0.05330
N3362       N  0.57215011  0.69507061  0.06043396    -0.60970
N3363       N  0.55173850  0.72371061  0.03418769    -0.07240
N3364       N  0.54005223  0.72651329  0.05774612    -0.59990
N3365       N  0.57200153  0.70179692  0.47243818    -0.04970
N3366       N  0.57599582  0.68927011  0.44914162    -0.61060
Mn3367     Mn  0.60030032  0.70142730  0.00499392     1.18440
C3368       C  0.55983577  0.70239709  0.43204222     0.97230
C3369       C  0.55298213  0.70845592  0.07381809     0.97900
N3370       N  0.65500338  0.78565523  0.47424559    -0.07260
N3371       N  0.67615428  0.79884309  0.46519163    -0.63570
N3372       N  0.63402332  0.80490228  0.03265840    -0.06060
N3373       N  0.63971545  0.82808192  0.04584692    -0.64240
N3374       N  0.65356640  0.78691563  0.03347723    -0.06770
N3375       N  0.67339092  0.79841949  0.04684254    -0.63830
N3376       N  0.63485292  0.80280340  0.47247590    -0.05660
N3377       N  0.64155717  0.82657602  0.46122301    -0.64520
Mn3378     Mn  0.65391732  0.75094317  0.50447181     1.10660
C3379       C  0.66717348  0.82433049  0.45707924     0.98460
C3380       C  0.66396735  0.82385353  0.05475224     0.98530
N3381       N  0.55509065  0.78732025  0.03360946    -0.06770
N3382       N  0.54595706  0.78546239  0.05852115    -0.62150
N3383       N  0.57572259  0.80437157  0.46979325    -0.06090
N3384       N  0.58048636  0.81528154  0.44607272    -0.58880
N3385       N  0.55690809  0.78564876  0.46830095    -0.07400
N3386       N  0.54877539  0.78335576  0.44303332    -0.61710
N3387       N  0.57423967  0.80573651  0.03295653    -0.06390
N3388       N  0.57817459  0.81680295  0.05692457    -0.58900
Mn3389     Mn  0.55286306  0.75471394  0.00136360     1.20190
Mn3390     Mn  0.60406507  0.80469229  0.50200074     1.10090
Cl3391     Cl  0.60334888  0.75292817  0.00323773    -0.86870
C3392       C  0.56049809  0.80418614  0.07287335     0.95460
C3393       C  0.56364568  0.80223265  0.42938902     0.95260
N3394       N  0.94320055  0.71984672  0.03800004    -0.07020
N3395       N  0.95185980  0.72261293  0.06302705    -0.59140
N3396       N  0.92634138  0.69907545  0.47387829    -0.06700
N3397       N  0.92288386  0.68741971  0.45004726    -0.61270
N3398       N  0.94473206  0.71832109  0.47299486    -0.06300
N3399       N  0.95388130  0.72017629  0.44815083    -0.59120
N3400       N  0.92435985  0.70106124  0.03720336    -0.05980
N3401       N  0.92004110  0.69070582  0.06127331    -0.61620
C3402       C  0.93723474  0.70416707  0.07737457     0.95150
C3403       C  0.94011228  0.70061011  0.43401814     0.94930
N3404       N  0.84709337  0.71603868  0.47205302    -0.07210
N3405       N  0.82831224  0.70355925  0.45780691    -0.59720
N3406       N  0.86432559  0.69972011  0.03295248    -0.05330
N3407       N  0.85765916  0.67622863  0.04490382    -0.60970
N3408       N  0.84439138  0.71722610  0.03174678    -0.07240
N3409       N  0.82358868  0.70512780  0.04272421    -0.59990
N3410       N  0.86749293  0.69924500  0.47301708    -0.04970
N3411       N  0.86366912  0.67638120  0.45880782    -0.61060
Mn3412     Mn  0.89624473  0.69950565  0.00448594     1.18440
C3413       C  0.83950456  0.67910691  0.44924577     0.97230
C3414       C  0.83249916  0.67972323  0.05108262     0.97900
N3415       N  0.94595722  0.78250606  0.47252251    -0.07260
N3416       N  0.95596362  0.78018078  0.44805076    -0.63570
N3417       N  0.92553231  0.80196916  0.03626655    -0.06060
N3418       N  0.92194119  0.81280305  0.06043444    -0.64240
N3419       N  0.94461323  0.78363860  0.03652549    -0.06770
N3420       N  0.95457464  0.78195266  0.06096764    -0.63830
N3421       N  0.92765305  0.80171481  0.47273567    -0.05660
N3422       N  0.92489271  0.81271643  0.44868482    -0.64520
Mn3423     Mn  0.94621788  0.75098196  0.00494507     1.10660
C3424       C  0.94258898  0.79926474  0.43336512     0.98460
C3425       C  0.94023175  0.80024841  0.07564844     0.98530
N3426       N  0.84499572  0.78772882  0.03092702    -0.06770
N3427       N  0.82427557  0.80115189  0.04052940    -0.62150
N3428       N  0.86846207  0.80337559  0.47199390    -0.06090
N3429       N  0.86471369  0.82636792  0.45821964    -0.58880
N3430       N  0.84759563  0.78701441  0.47152910    -0.07400
N3431       N  0.82867113  0.79995268  0.45814405    -0.61710
N3432       N  0.86549015  0.80469107  0.03203216    -0.06390
N3433       N  0.85926324  0.82903314  0.04276289    -0.58900
Mn3434     Mn  0.84500420  0.75195298  0.00151032     1.20190
Mn3435     Mn  0.89739532  0.80316667  0.00347547     1.10090
Cl3436     Cl  0.89562490  0.75142534  0.00370390    -0.86870
C3437       C  0.83373350  0.82684797  0.04791281     0.95460
C3438       C  0.84013386  0.82423601  0.44950936     0.95260
N3439       N  0.71969243  0.53763833  0.10666725    -0.07020
N3440       N  0.70936894  0.55090378  0.08580708    -0.59140
N3441       N  0.77827406  0.55427747  0.12749884    -0.06700
N3442       N  0.78945411  0.57841722  0.12208383    -0.61270
N3443       N  0.77724776  0.53793922  0.10594191    -0.06300
N3444       N  0.78700954  0.55200377  0.08515510    -0.59120
N3445       N  0.71987621  0.55476926  0.12768575    -0.05980
N3446       N  0.70923961  0.57900161  0.12174462    -0.61620
C3447       C  0.70287209  0.57663784  0.09578838     0.95150
C3448       C  0.79470935  0.57721276  0.09582685     0.94930
N3449       N  0.78109875  0.53318299  0.20730568    -0.07210
N3450       N  0.80518863  0.53111162  0.21675389    -0.59720
N3451       N  0.71874213  0.55291921  0.18950769    -0.05330
N3452       N  0.69570049  0.56499128  0.18712716    -0.60970
N3453       N  0.71813159  0.53318811  0.20787746    -0.07240
N3454       N  0.69427342  0.53118683  0.21793320    -0.59990
N3455       N  0.78020226  0.55293968  0.18900943    -0.04970
N3456       N  0.80328280  0.56497571  0.18608960    -0.61060
Mn3457     Mn  0.74924861  0.55384143  0.15900626     1.18440
C3458       C  0.81872327  0.55144056  0.20365733     0.97230
C3459       C  0.68060711  0.55151953  0.20513940     0.97900
N3460       N  0.77673670  0.96677699  0.10477205    -0.07260
N3461       N  0.78620992  0.95355186  0.08330225    -0.63570
N3462       N  0.71871017  0.95046619  0.12748828    -0.06060
N3463       N  0.70549911  0.92734587  0.12302885    -0.64240
N3464       N  0.71907568  0.96669583  0.10609190    -0.06770
N3465       N  0.70689354  0.95339909  0.08602607    -0.63830
N3466       N  0.77728345  0.94953923  0.12549251    -0.05660
N3467       N  0.78771478  0.92534994  0.11878276    -0.64520
Mn3468     Mn  0.74821204  0.50223657  0.10502483     1.10660
C3469       C  0.79305861  0.92775020  0.09261957     0.98460
C3470       C  0.69809940  0.92905308  0.09739907     0.98530
N3471       N  0.71861064  0.96848545  0.20809593    -0.06770
N3472       N  0.69566284  0.96843932  0.22025261    -0.62150
N3473       N  0.77993032  0.95028391  0.18721597    -0.06090
N3474       N  0.80286024  0.93817830  0.18432246    -0.58880
N3475       N  0.78044915  0.96874203  0.20692156    -0.07400
N3476       N  0.80394387  0.96943095  0.21791405    -0.61710
N3477       N  0.71864001  0.94981886  0.18861144    -0.06390
N3478       N  0.69589076  0.93676273  0.18709215    -0.58900
Mn3479     Mn  0.74955679  0.00106220  0.20915192     1.20190
Mn3480     Mn  0.74872696  0.94994307  0.15761331     1.10090
Cl3481     Cl  0.74894975  0.00177513  0.15742916    -0.86870
C3482       C  0.68166890  0.94828498  0.20711079     0.95460
C3483       C  0.81768892  0.95010264  0.20368084     0.95260
N3484       N  0.71783608  0.53300346  0.30308154    -0.07020
N3485       N  0.69452351  0.53206547  0.29167769    -0.59140
N3486       N  0.77921036  0.55355918  0.32092518    -0.06700
N3487       N  0.80184056  0.56681055  0.32244215    -0.61270
N3488       N  0.77957786  0.53447497  0.30179820    -0.06300
N3489       N  0.80262712  0.53444611  0.28989831    -0.59120
N3490       N  0.71797303  0.55179369  0.32252798    -0.05980
N3491       N  0.69492756  0.56387726  0.32476008    -0.61620
C3492       C  0.68039654  0.55162890  0.30526760     0.95150
C3493       C  0.81632168  0.55493431  0.30285274     0.94930
N3494       N  0.78043248  0.53662388  0.40298107    -0.07210
N3495       N  0.79411366  0.54860266  0.42266472    -0.59720
N3496       N  0.72149396  0.55308194  0.38466166    -0.05330
N3497       N  0.71003673  0.57663242  0.39166853    -0.60970
N3498       N  0.72247870  0.53545815  0.40506325    -0.07240
N3499       N  0.71190265  0.54747713  0.42654773    -0.59990
N3500       N  0.77977792  0.55373307  0.38222047    -0.04970
N3501       N  0.79356899  0.57652891  0.38676334    -0.61060
Mn3502     Mn  0.74946693  0.55329738  0.35215005     1.18440
C3503       C  0.80262110  0.57315708  0.41169285     0.97230
C3504       C  0.70408251  0.57300630  0.41756000     0.97900
N3505       N  0.78159270  0.96978774  0.30274487    -0.07260
N3506       N  0.80575046  0.97231597  0.29342828    -0.63570
N3507       N  0.71928439  0.94912837  0.32214579    -0.06060
N3508       N  0.69625920  0.93689363  0.32504949    -0.64240
N3509       N  0.71850091  0.96830834  0.30328130    -0.06770
N3510       N  0.69464217  0.96958075  0.29320121    -0.63830
N3511       N  0.78079404  0.94983339  0.32088351    -0.05660
N3512       N  0.80391521  0.93811021  0.32374350    -0.64520
Mn3513     Mn  0.74940919  0.50121160  0.30110413     1.10660
C3514       C  0.81936846  0.95201223  0.30639838     0.98460
C3515       C  0.68112035  0.94946660  0.30657079     0.98530
N3516       N  0.72336421  0.96536135  0.40486550    -0.06770
N3517       N  0.71451909  0.95211044  0.42645382    -0.62150
N3518       N  0.78066854  0.94902952  0.38212430    -0.06090
N3519       N  0.79387374  0.92609793  0.38708913    -0.59300
N3520       N  0.78091867  0.96627383  0.40300068    -0.07400
N3521       N  0.79370301  0.95429560  0.42310850    -0.61710
N3522       N  0.72240783  0.94805476  0.38399144    -0.06390
N3523       N  0.71242520  0.92366870  0.39080442    -0.58900
Mn3524     Mn  0.75180250  0.50100684  0.40476615     1.20190
Mn3525     Mn  0.75063111  0.94881676  0.35167680     1.10090
Cl3526     Cl  0.75025441  0.50110592  0.35266862    -0.86870
C3527       C  0.70771605  0.92618653  0.41710392     0.95460
C3528       C  0.80207033  0.92955033  0.41236840     0.95260
N3529       N  0.52861467  0.66457854  0.22031474    -0.07020
N3530       N  0.53765229  0.68697817  0.20729304    -0.59140
N3531       N  0.97054397  0.64348512  0.20401753    -0.06700
N3532       N  0.95689046  0.64964044  0.18260202    -0.61270
N3533       N  0.97086023  0.66488038  0.22107154    -0.06300
N3534       N  0.95827516  0.68659412  0.21040185    -0.59120
N3535       N  0.52999538  0.64238182  0.20430291    -0.05980
N3536       N  0.54136724  0.64890227  0.18159406    -0.61620
C3537       C  0.54602966  0.67664671  0.18326624     0.95150
C3538       C  0.94909565  0.67630067  0.18662720     0.94930
N3539       N  0.96826753  0.55735608  0.21934996    -0.07210
N3540       N  0.94532521  0.54455272  0.21859368    -0.59720
N3541       N  0.53040342  0.57773034  0.20337664    -0.05330
N3542       N  0.55388529  0.58040886  0.19275621    -0.60970
N3543       N  0.52988201  0.55661367  0.22028427    -0.07240
N3544       N  0.55301567  0.54437482  0.22121696    -0.59990
N3545       N  0.96851487  0.57852117  0.20253168    -0.04970
N3546       N  0.94570636  0.58079176  0.19035583    -0.61060
Mn3547     Mn  0.49984479  0.61008684  0.20330720     1.18440
C3548       C  0.93145531  0.55916968  0.20018294     0.97230
C3549       C  0.56777540  0.55928387  0.20375477     0.97900
N3550       N  0.97116276  0.66282154  0.28842293    -0.07260
N3551       N  0.95846602  0.68372270  0.30058828    -0.63570
N3552       N  0.52986377  0.63937372  0.30312747    -0.06060
N3553       N  0.54401643  0.64417504  0.32464241    -0.64240
N3554       N  0.52964119  0.66166628  0.28740007    -0.06770
N3555       N  0.54295017  0.68245147  0.29905742    -0.63830
N3556       N  0.97060375  0.64034343  0.30386755    -0.05660
N3557       N  0.95680862  0.64502151  0.32558907    -0.64520
Mn3558     Mn  0.00004605  0.66440702  0.25444000     1.10660
C3559       C  0.94898421  0.67184766  0.32347381     0.98460
C3560       C  0.55236070  0.67086020  0.32200371     0.98530
N3561       N  0.52939421  0.55480737  0.28169500    -0.06770
N3562       N  0.55246206  0.54259020  0.28006373    -0.62150
N3563       N  0.96793142  0.57571335  0.30021714    -0.06090
N3564       N  0.94449493  0.57855106  0.31097326    -0.58880
N3565       N  0.96758545  0.55620743  0.28139187    -0.07400
N3566       N  0.94388227  0.54543903  0.27917423    -0.61710
N3567       N  0.52974561  0.57432543  0.30046781    -0.06390
N3568       N  0.55296896  0.57561384  0.31196334    -0.58900
Mn3569     Mn  0.49868959  0.55473495  0.25071524     1.20190
Mn3570     Mn  0.49956259  0.60695654  0.30238427     1.10090
Cl3571     Cl  0.49947571  0.60930539  0.25272684    -0.86870
C3572       C  0.56702932  0.55556621  0.29918961     0.95460
C3573       C  0.92957638  0.55942536  0.29778159     0.95260
N3574       N  0.53031237  0.94632423  0.22660174    -0.07020
N3575       N  0.55402100  0.95718325  0.22888614    -0.59140
N3576       N  0.96831931  0.92657390  0.20823824    -0.06700
N3577       N  0.94499243  0.92426129  0.19710795    -0.61270
N3578       N  0.96825018  0.94592570  0.22718450    -0.06300
N3579       N  0.94473570  0.95695096  0.22936812    -0.59120
N3580       N  0.53006842  0.92674991  0.20783023    -0.05980
N3581       N  0.55349778  0.92409297  0.19707009    -0.61620
C3582       C  0.56831890  0.94332696  0.21021161     0.95150
C3583       C  0.93041749  0.94340910  0.21038247     0.94930
N3584       N  0.97015650  0.83950496  0.22118018    -0.07210
N3585       N  0.95808491  0.81813372  0.20906841    -0.59720
N3586       N  0.52845965  0.86181501  0.20409191    -0.05330
N3587       N  0.54167738  0.85717330  0.18200069    -0.60970
N3588       N  0.52841062  0.83931512  0.21952205    -0.07240
N3589       N  0.54085123  0.81841837  0.20699760    -0.59990
N3590       N  0.96917555  0.86185945  0.20558343    -0.04970
N3591       N  0.95556122  0.85645724  0.18382189    -0.61060
Mn3592     Mn  0.99901445  0.89479594  0.20601878     1.18440
C3593       C  0.94843929  0.82931991  0.18604224     0.97230
C3594       C  0.54958019  0.83032809  0.18381732     0.97900
N3595       N  0.96898735  0.94518296  0.28904501    -0.07260
N3596       N  0.94611793  0.95800895  0.28976869    -0.63570
N3597       N  0.53108155  0.92475404  0.30508602    -0.06060
N3598       N  0.55446684  0.92235509  0.31596268    -0.64240
N3599       N  0.53074814  0.94567474  0.28798004    -0.06770
N3600       N  0.55393079  0.95803617  0.28709363    -0.63830
N3601       N  0.96914102  0.92415122  0.30603445    -0.05660
N3602       N  0.94636313  0.92200683  0.31831694    -0.64520
Mn3603     Mn  0.99950368  0.94731789  0.25758927     1.10660
C3604       C  0.93223110  0.94354779  0.30837877     0.98460
C3605       C  0.56842640  0.94355504  0.30498912     0.98530
N3606       N  0.52996981  0.83845092  0.28681843    -0.06770
N3607       N  0.54425413  0.81773936  0.29702175    -0.62150
N3608       N  0.97083488  0.85931698  0.30466712    -0.06090
N3609       N  0.95766362  0.85309530  0.32642083    -0.58880
N3610       N  0.97149827  0.83762830  0.28799850    -0.07400
N3611       N  0.95962676  0.81576026  0.29930751    -0.61710
N3612       N  0.53017508  0.86009353  0.30355802    -0.06390
N3613       N  0.54526658  0.85519809  0.32419309    -0.58900
Mn3614     Mn  0.00005289  0.83769930  0.25390755     1.20190
Mn3615     Mn  0.00025400  0.89244917  0.30520013     1.10090
Cl3616     Cl  0.99970397  0.89280706  0.25566854    -0.86870
C3617       C  0.55423043  0.82902771  0.32009521     0.95460
C3618       C  0.95043946  0.82612746  0.32300387     0.95260
C3619       C  0.90345143  0.94595907  0.31150637    -0.06370
C3620       C  0.88785004  0.92152940  0.31119010    -0.33800
C3621       C  0.86054176  0.92331273  0.30943385     0.35450
C3622       C  0.84831395  0.94977041  0.30728135    -0.06730
C3623       C  0.86384085  0.97419264  0.30892113    -0.33700
C3624       C  0.89112523  0.97237961  0.31147273     0.35360
H3625       H  0.89687757  0.90093025  0.31128355     0.15730
O3626       O  0.84602462  0.89897849  0.30870137    -0.61200
H3627       H  0.85470497  0.99467298  0.30893126     0.15740
O3628       O  0.90575702  0.99650676  0.31334780    -0.61290
H3629       H  0.90577452  0.50154145  0.33270218     0.42740
H3630       H  0.84378973  0.89350394  0.32774856     0.42690
C3631       C  0.59722400  0.94481926  0.30593648    -0.06370
C3632       C  0.60993709  0.96748971  0.31853406    -0.33800
C3633       C  0.63726607  0.96865447  0.31957966     0.35450
C3634       C  0.65229665  0.94755042  0.30692570    -0.06730
C3635       C  0.63956614  0.92463625  0.29471930    -0.33700
C3636       C  0.61221891  0.92308488  0.29432908     0.35360
H3637       H  0.59864938  0.98399858  0.32806519     0.15730
O3638       O  0.64899705  0.98959807  0.33439387    -0.61200
H3639       H  0.65083635  0.90815971  0.28512531     0.15740
O3640       O  0.60027587  0.90081621  0.28157235    -0.61290
H3641       H  0.59833129  0.88611486  0.29550390     0.42740
H3642       H  0.65882477  0.00105534  0.32133486     0.42690
C3643       C  0.84504373  0.55861799  0.30054173    -0.06370
C3644       C  0.85845223  0.54356683  0.28070997    -0.33800
C3645       C  0.88565011  0.54350175  0.27996606     0.35450
C3646       C  0.90045877  0.55876093  0.29904332    -0.06730
C3647       C  0.88704908  0.57471319  0.31841235    -0.33700
C3648       C  0.85964273  0.57487105  0.31918450     0.35360
H3649       H  0.84785656  0.53106968  0.26601101     0.15730
O3650       O  0.89753898  0.52817884  0.26034413    -0.61200
H3651       H  0.89778550  0.58706996  0.33308866     0.15740
O3652       O  0.84745613  0.59041228  0.33871779    -0.61290
H3653       H  0.84560009  0.60953661  0.33105187     0.42740
H3654       H  0.90387734  0.54260172  0.24776161     0.42690
C3655       C  0.59597698  0.55342741  0.30127651    -0.06370
C3656       C  0.60918292  0.56723115  0.32233288    -0.33800
C3657       C  0.63654537  0.56750188  0.32364232     0.35450
C3658       C  0.65144632  0.55416805  0.30337602    -0.06730
C3659       C  0.63820323  0.54072733  0.28221967    -0.33700
C3660       C  0.61090463  0.53967517  0.28136687     0.35360
H3661       H  0.59826196  0.57787749  0.33796514     0.15730
O3662       O  0.64836176  0.58015340  0.34530300    -0.61200
H3663       H  0.64914419  0.53072798  0.26634100     0.15740
O3664       O  0.59913114  0.52544056  0.26065631    -0.61290
H3665       H  0.59346442  0.50727414  0.26848511     0.42740
H3666       H  0.65010258  0.60029845  0.34040654     0.42690
C3667       C  0.84639458  0.94692479  0.20528168    -0.06370
C3668       C  0.85922969  0.95364191  0.22926986    -0.33800
C3669       C  0.88638785  0.95225018  0.23101082     0.35450
C3670       C  0.90150848  0.94458653  0.20857094    -0.06730
C3671       C  0.88870425  0.93737755  0.18460216    -0.33700
C3672       C  0.86140824  0.93864075  0.18276208     0.35360
H3673       H  0.84816208  0.95986932  0.24683177     0.15730
O3674       O  0.89795190  0.95728068  0.25519733    -0.61200
H3675       H  0.89989415  0.93122355  0.16710248     0.15740
O3676       O  0.84975263  0.93232638  0.15867143    -0.61290
H3677       H  0.84878897  0.95050432  0.14899952     0.42740
H3678       H  0.90260563  0.97750032  0.25506868     0.42690
C3679       C  0.59736495  0.94393473  0.20924142    -0.06370
C3680       C  0.61136633  0.95591096  0.23071416    -0.33800
C3681       C  0.63868947  0.95638681  0.23085850     0.35450
C3682       C  0.65284527  0.94453970  0.20939750    -0.06730
C3683       C  0.63885777  0.93167735  0.18826798    -0.33700
C3684       C  0.61145716  0.93129369  0.18807251     0.35360
H3685       H  0.60109580  0.96488337  0.24762079     0.15730
O3686       O  0.65133426  0.96925399  0.25179142    -0.61200
H3687       H  0.64912880  0.92263627  0.17130824     0.15740
O3688       O  0.59872542  0.91934380  0.16660529    -0.61290
H3689       H  0.59823660  0.89886197  0.17042080     0.42740
H3690       H  0.65363661  0.98905940  0.24619182     0.42690
C3691       C  0.84760453  0.55356504  0.20267451    -0.06370
C3692       C  0.86272691  0.52899702  0.20119286    -0.33800
C3693       C  0.88992099  0.53059039  0.19812608     0.35450
C3694       C  0.90262190  0.55694719  0.19747137    -0.06730
C3695       C  0.88740591  0.58150382  0.19794290    -0.33700
C3696       C  0.86014474  0.57993160  0.20031997     0.35360
H3697       H  0.85336363  0.50852297  0.20174342     0.15730
O3698       O  0.90397478  0.50627731  0.19556764    -0.61200
H3699       H  0.89672214  0.60203564  0.19747162     0.15740
O3700       O  0.84595534  0.60435555  0.20077122    -0.61290
H3701       H  0.84432594  0.60942187  0.22003660     0.42740
H3702       H  0.91128430  0.00280513  0.21361042     0.42690
C3703       C  0.59665167  0.55758889  0.20261961    -0.06370
C3704       C  0.60889732  0.53130659  0.20063881    -0.33800
C3705       C  0.63620002  0.52937072  0.20087832     0.35450
C3706       C  0.65173829  0.55353922  0.20492329    -0.06730
C3707       C  0.63957972  0.57992280  0.20605855    -0.33700
C3708       C  0.61229225  0.58210593  0.20465499     0.35360
H3709       H  0.59728993  0.51231031  0.19828995     0.15730
O3710       O  0.64764184  0.50400453  0.19551028    -0.61200
H3711       H  0.65126618  0.59888901  0.20813535     0.15740
O3712       O  0.60108335  0.60823013  0.20653284    -0.61290
H3713       H  0.60088951  0.61553794  0.18792265     0.42740
H3714       H  0.64929771  0.00310750  0.17569894     0.42690
C3715       C  0.79850545  0.90239006  0.07626556    -0.06370
C3716       C  0.81580251  0.90359338  0.05470140    -0.33800
C3717       C  0.82571735  0.87863342  0.04362912     0.35450
C3718       C  0.81824989  0.85214015  0.05422948    -0.06730
C3719       C  0.79849251  0.85093577  0.07339265    -0.33700
C3720       C  0.78844127  0.87583580  0.08429677     0.35360
H3721       H  0.82296215  0.92374447  0.04763666     0.15730
O3722       O  0.84314388  0.88028767  0.02278102    -0.61200
H3723       H  0.79207532  0.83079637  0.08119165     0.15740
O3724       O  0.76967038  0.87390497  0.10382194    -0.61290
H3725       H  0.75292218  0.87724418  0.09442259     0.42740
H3726       H  0.85978333  0.88674045  0.03095574     0.42690
C3727       C  0.80041395  0.60362246  0.08112715    -0.06370
C3728       C  0.79559196  0.62952340  0.09441468    -0.33800
C3729       C  0.80344749  0.65517726  0.08341742     0.35450
C3730       C  0.81655215  0.65533497  0.05888346    -0.06730
C3731       C  0.81949165  0.62988049  0.04443516    -0.33700
C3732       C  0.81133667  0.60409438  0.05532375     0.35360
H3733       H  0.78652602  0.62998326  0.11404142     0.15730
O3734       O  0.80063032  0.67953589  0.09805919    -0.61200
H3735       H  0.82956099  0.62983848  0.02530889     0.15740
O3736       O  0.81539043  0.57958554  0.04125069    -0.61290
H3737       H  0.83327676  0.57360486  0.04609364     0.42740
H3738       H  0.78341635  0.68710252  0.09271397     0.42690
C3739       C  0.82759644  0.84963225  0.43867217    -0.06370
C3740       C  0.84317820  0.86665573  0.42218227    -0.33800
C3741       C  0.83627597  0.89421629  0.41632523     0.35450
C3742       C  0.81307545  0.90543930  0.42650180    -0.06730
C3743       C  0.79703560  0.88858874  0.44287386    -0.33700
C3744       C  0.80438976  0.86085701  0.44934038     0.35360
H3745       H  0.86130474  0.85872884  0.41422230     0.15730
O3746       O  0.85175031  0.90968687  0.39938660    -0.61200
H3747       H  0.77841519  0.89654250  0.44976264     0.15740
O3748       O  0.78906281  0.84520350  0.46622564    -0.61290
H3749       H  0.79548682  0.84967326  0.48455179     0.42740
H3750       H  0.86355225  0.92063283  0.41133204     0.42690
C3751       C  0.81384719  0.59756329  0.42561202    -0.06370
C3752       C  0.79839236  0.61328527  0.44351043    -0.33800
C3753       C  0.80491670  0.64140387  0.44979370     0.35450
C3754       C  0.82683734  0.65403998  0.43770712    -0.06730
C3755       C  0.84202836  0.63813739  0.41983055    -0.33700
C3756       C  0.83586815  0.61019089  0.41402948     0.35360
H3757       H  0.78076085  0.60413456  0.45176103     0.15730
O3758       O  0.79062577  0.65576730  0.46862914    -0.61200
H3759       H  0.85951008  0.64717649  0.41109899     0.15740
O3760       O  0.85101513  0.59554074  0.39612337    -0.61290
H3761       H  0.86415217  0.58573362  0.40724668     0.42740
H3762       H  0.77605496  0.66433245  0.45849885     0.42690
C3763       C  0.94295409  0.80108599  0.40354018    -0.06370
C3764       C  0.96553485  0.79423700  0.38913777    -0.33800
C3765       C  0.96675244  0.79836103  0.36128359     0.35450
C3766       C  0.94530307  0.80950067  0.34730009    -0.06730
C3767       C  0.92221802  0.81466701  0.36136553    -0.33700
C3768       C  0.92086508  0.81047053  0.38914447     0.35360
H3769       H  0.98282596  0.78733313  0.39967797     0.15730
O3770       O  0.98996699  0.79445229  0.34832663    -0.61200
H3771       H  0.90584024  0.82423481  0.35118221     0.15740
O3772       O  0.89810339  0.81685688  0.40212288    -0.61290
H3773       H  0.89979873  0.83712745  0.40672775     0.42740
H3774       H  0.99924351  0.81278583  0.34987037     0.42690
C3775       C  0.94130693  0.80253453  0.10525466    -0.06370
C3776       C  0.96541081  0.80106301  0.11830174    -0.33800
C3777       C  0.96732189  0.80708490  0.14576054     0.35450
C3778       C  0.94489174  0.81328245  0.16094246    -0.06730
C3779       C  0.92051590  0.81278299  0.14830022    -0.33700
C3780       C  0.91857316  0.80725891  0.12065698     0.35360
H3781       H  0.98305928  0.79743333  0.10685537     0.15730
O3782       O  0.99149323  0.81010812  0.15708869    -0.61200
H3783       H  0.90319257  0.81850337  0.15947385     0.15740
O3784       O  0.89446034  0.80758410  0.10876188    -0.61290
H3785       H  0.88883013  0.78756887  0.10803722     0.42740
H3786       H  0.99745642  0.82928118  0.15204704     0.42690
C3787       C  0.93955477  0.69747338  0.40415474    -0.06370
C3788       C  0.92197256  0.67812039  0.39251964    -0.33800
C3789       C  0.92231772  0.67247074  0.36490226     0.35450
C3790       C  0.94002663  0.68662942  0.34804370    -0.06730
C3791       C  0.95530000  0.70845658  0.35903143    -0.33700
C3792       C  0.95566973  0.71342543  0.38692715     0.35360
H3793       H  0.90866423  0.66618184  0.40498066     0.15730
O3794       O  0.90622918  0.65184219  0.35464970    -0.61200
H3795       H  0.96863010  0.72000809  0.34633755     0.15740
O3796       O  0.97268562  0.73304484  0.39709137    -0.61290
H3797       H  0.98593653  0.72208961  0.40695985     0.42740
H3798       H  0.91395090  0.63372297  0.36040038     0.42690
C3799       C  0.93661606  0.70196077  0.10731359    -0.06370
C3800       C  0.95306680  0.71858614  0.12376639    -0.33800
C3801       C  0.95413350  0.71420148  0.15176911     0.35450
C3802       C  0.93924131  0.69237360  0.16341019    -0.06730
C3803       C  0.92069021  0.67841695  0.14749622    -0.33700
C3804       C  0.91907478  0.68314223  0.11992761     0.35360
H3805       H  0.96570412  0.73431572  0.11487273     0.15730
O3806       O  0.97035305  0.73063570  0.16729278    -0.61200
H3807       H  0.90894850  0.66167977  0.15608267     0.15740
O3808       O  0.90138435  0.66759257  0.10536285    -0.61290
H3809       H  0.88508114  0.67875582  0.10574061     0.42740
H3810       H  0.98682374  0.72003831  0.16902978     0.42690
C3811       C  0.68283936  0.85003097  0.45288730    -0.06370
C3812       C  0.70450693  0.84966712  0.43601503    -0.33800
C3813       C  0.71459833  0.87506063  0.42620131     0.35450
C3814       C  0.70289556  0.90101616  0.43342856    -0.06730
C3815       C  0.68370428  0.90150190  0.45315422    -0.33700
C3816       C  0.67370631  0.87622135  0.46304790     0.35360
H3817       H  0.71228955  0.82983023  0.42880273     0.15730
O3818       O  0.73534730  0.87434875  0.40880995    -0.61200
H3819       H  0.67500917  0.92128418  0.45930883     0.15740
O3820       O  0.65361675  0.87739681  0.48119442    -0.61290
H3821       H  0.66201368  0.87608267  0.49905492     0.42740
H3822       H  0.72816265  0.86732269  0.39152256     0.42690
C3823       C  0.69660148  0.59713803  0.43423047    -0.06370
C3824       C  0.67271676  0.59656251  0.44731827    -0.33800
C3825       C  0.66129008  0.62162066  0.45597378     0.35450
C3826       C  0.67411799  0.64792908  0.45185521    -0.06730
C3827       C  0.69932050  0.64803239  0.44117382    -0.33700
C3828       C  0.71050850  0.62281455  0.43212291     0.35360
H3829       H  0.66196150  0.57693813  0.44904947     0.15730
O3830       O  0.63730310  0.62000780  0.46807671    -0.61200
H3831       H  0.70978780  0.66771064  0.43858362     0.15740
O3832       O  0.73478944  0.62343585  0.42055940    -0.61290
H3833       H  0.73208203  0.63091769  0.40222937     0.42740
H3834       H  0.62459060  0.61793224  0.45316846     0.42690
C3835       C  0.68866651  0.90306132  0.08409997    -0.06370
C3836       C  0.67547351  0.88374139  0.10063028    -0.33800
C3837       C  0.67086441  0.85615527  0.09235269     0.35450
C3838       C  0.67844002  0.84736623  0.06670039    -0.06730
C3839       C  0.69174735  0.86636981  0.04989373    -0.33700
C3840       C  0.69713795  0.89411014  0.05856025     0.35360
H3841       H  0.66917014  0.88990182  0.12058406     0.15730
O3842       O  0.65761094  0.83821869  0.10903541    -0.61200
H3843       H  0.69696509  0.86004269  0.02967266     0.15740
O3844       O  0.71121217  0.91180916  0.04237629    -0.61290
H3845       H  0.69825012  0.92015156  0.03000645     0.42740
H3846       H  0.67131386  0.82768084  0.11873482     0.42690
C3847       C  0.69644086  0.60187383  0.08003582    -0.06370
C3848       C  0.67745986  0.60053488  0.06003201    -0.33800
C3849       C  0.66697162  0.62539275  0.04968624     0.35450
C3850       C  0.67566540  0.65200270  0.05933676    -0.06730
C3851       C  0.69685359  0.65325213  0.07685779    -0.33700
C3852       C  0.70723583  0.62839562  0.08731664     0.35360
H3853       H  0.66958760  0.58035142  0.05364614     0.15730
O3854       O  0.64804562  0.62348430  0.03026565    -0.61200
H3855       H  0.70434484  0.67344443  0.08369204     0.15740
O3856       O  0.72778141  0.63020071  0.10492465    -0.61290
H3857       H  0.72020778  0.63700668  0.12208076     0.42740
H3858       H  0.63193617  0.61771645  0.03981535     0.42690
C3859       C  0.56530934  0.80500222  0.39958135    -0.06370
C3860       C  0.55131892  0.78683980  0.38232638    -0.33800
C3861       C  0.55191105  0.79060579  0.35428059     0.35450
C3862       C  0.56513214  0.81391391  0.34337096    -0.06730
C3863       C  0.58152206  0.82979873  0.36019226    -0.33700
C3864       C  0.58166076  0.82567941  0.38792441     0.35360
H3865       H  0.53920899  0.77041891  0.39064077     0.15730
O3866       O  0.53751435  0.77309622  0.33804807    -0.61200
H3867       H  0.59211042  0.84769049  0.35214953     0.15740
O3868       O  0.59682338  0.84322974  0.40344781    -0.61290
H3869       H  0.58598171  0.86015339  0.40676776     0.42740
H3870       H  0.55046935  0.76111038  0.32868175     0.42690
C3871       C  0.56108217  0.80701982  0.10281287    -0.06370
C3872       C  0.54723588  0.78835535  0.11960342    -0.33800
C3873       C  0.54683222  0.79243053  0.14774725     0.35450
C3874       C  0.55944992  0.81608992  0.15922955    -0.06730
C3875       C  0.57556169  0.83251065  0.14278950    -0.33700
C3876       C  0.57648042  0.82826939  0.11507667     0.35360
H3877       H  0.53617891  0.77106874  0.11091168     0.15730
O3878       O  0.53221958  0.77470815  0.16338973    -0.61200
H3879       H  0.58569094  0.85062386  0.15118818     0.15740
O3880       O  0.59102293  0.84666903  0.10007546    -0.61290
H3881       H  0.60831409  0.83763746  0.09826455     0.42740
H3882       H  0.54431591  0.75951788  0.16876376     0.42690
C3883       C  0.55941351  0.68655929  0.34656222    -0.06370
C3884       C  0.57943801  0.67578310  0.36257765    -0.33800
C3885       C  0.58031080  0.68141664  0.39020325     0.35450
C3886       C  0.56083916  0.69822098  0.40239505    -0.06730
C3887       C  0.54207992  0.71075326  0.38590257    -0.33700
C3888       C  0.54104567  0.70481181  0.35832178     0.35360
H3889       H  0.59333247  0.66112577  0.35400638     0.15730
O3890       O  0.59999033  0.66977697  0.40507569    -0.61200
H3891       H  0.52732967  0.72400739  0.39466092     0.15740
O3892       O  0.52037891  0.71453212  0.34366215    -0.61290
H3893       H  0.50833565  0.69820855  0.34201585     0.42740
H3894       H  0.59415852  0.65025649  0.40892692     0.42690
C3895       C  0.54966637  0.70669336  0.10312554    -0.06370
C3896       C  0.52619108  0.69650647  0.11338309    -0.33800
C3897       C  0.52442806  0.68859904  0.14030174     0.35450
C3898       C  0.54581620  0.69258887  0.15790773    -0.06730
C3899       C  0.56869104  0.70498419  0.14805885    -0.33700
C3900       C  0.57075240  0.71190725  0.12073980     0.35360
H3901       H  0.50992995  0.69226611  0.10002659     0.15730
O3902       O  0.50242973  0.67469875  0.14878148    -0.61200
H3903       H  0.58552547  0.70738492  0.16102298     0.15740
O3904       O  0.59387338  0.72240650  0.11115814    -0.61290
H3905       H  0.59162443  0.74315432  0.11101973     0.42740
H3906       H  0.50363854  0.65541736  0.14108809     0.42690
N3907       N  0.65142232  0.71669003  0.53484430    -0.07020
N3908       N  0.67140537  0.70283023  0.54532261    -0.59140
N3909       N  0.63084831  0.69884351  0.97534194    -0.06700
N3910       N  0.63518796  0.67438134  0.96409593    -0.61270
N3911       N  0.65214348  0.71455617  0.97558972    -0.06300
N3912       N  0.67175062  0.69969479  0.96533777    -0.59120
N3913       N  0.63039713  0.70051927  0.53553854    -0.05980
N3914       N  0.63553743  0.67635464  0.54695829    -0.61620
C3915       C  0.66097031  0.67773791  0.55284139     0.95150
C3916       C  0.66055166  0.67464555  0.95816384     0.94930
N3917       N  0.55435389  0.72154110  0.97015274    -0.07210
N3918       N  0.54613538  0.72279571  0.94493550    -0.59720
N3919       N  0.57044491  0.70503289  0.53583403    -0.05330
N3920       N  0.57215012  0.69507065  0.56043395    -0.60970
N3921       N  0.55173853  0.72371068  0.53418770    -0.07240
N3922       N  0.54005227  0.72651336  0.55774614    -0.59990
N3923       N  0.57200154  0.70179687  0.97243819    -0.04970
N3924       N  0.57599582  0.68927003  0.94914166    -0.61060
Mn3925     Mn  0.60030031  0.70142734  0.50499390     1.18440
C3926       C  0.55983579  0.70239699  0.93204223     0.97230
C3927       C  0.55298216  0.70845597  0.57381810     0.97900
N3928       N  0.65500335  0.78565524  0.97424563    -0.07260
N3929       N  0.67615424  0.79884310  0.96519164    -0.63570
N3930       N  0.63402337  0.80490231  0.53265833    -0.06060
N3931       N  0.63971551  0.82808195  0.54584685    -0.64240
N3932       N  0.65356643  0.78691564  0.53347718    -0.06770
N3933       N  0.67339096  0.79841948  0.54684250    -0.63830
N3934       N  0.63485288  0.80280342  0.97247597    -0.05660
N3935       N  0.64155712  0.82657604  0.96122308    -0.64520
Mn3936     Mn  0.65391731  0.75094317  0.00447184     1.10660
C3937       C  0.66717343  0.82433050  0.95707927     0.98460
C3938       C  0.66396740  0.82385353  0.55475219     0.98530
N3939       N  0.55509070  0.78732032  0.53360944    -0.06770
N3940       N  0.54595712  0.78546248  0.55852113    -0.62150
N3941       N  0.57572256  0.80437157  0.96979331    -0.06090
N3942       N  0.58048631  0.81528159  0.94607281    -0.58880
N3943       N  0.55690807  0.78564874  0.96830097    -0.07400
N3944       N  0.54877537  0.78335579  0.94303333    -0.61710
N3945       N  0.57423973  0.80573658  0.53295648    -0.06390
N3946       N  0.57817466  0.81680303  0.55692452    -0.58900
Mn3947     Mn  0.55286308  0.75471399  0.50136360     1.20190
Mn3948     Mn  0.60406503  0.80469227  0.00200080     1.10090
Cl3949     Cl  0.60334889  0.75292820  0.50323770    -0.86870
C3950       C  0.56049816  0.80418625  0.57287331     0.95460
C3951       C  0.56364565  0.80223273  0.92938908     0.95260
N3952       N  0.94320053  0.71984669  0.53800006    -0.07020
N3953       N  0.95185979  0.72261291  0.56302707    -0.59140
N3954       N  0.92634144  0.69907547  0.97387826    -0.06700
N3955       N  0.92288393  0.68741971  0.95004724    -0.61270
N3956       N  0.94473210  0.71832112  0.97299483    -0.06300
N3957       N  0.95388137  0.72017631  0.94815081    -0.59120
N3958       N  0.92435983  0.70106122  0.53720340    -0.05980
N3959       N  0.92004108  0.69070581  0.56127335    -0.61620
C3960       C  0.93723473  0.70416706  0.57737459     0.95150
C3961       C  0.94011236  0.70061011  0.93401812     0.94930
N3962       N  0.84709340  0.71603867  0.97205297    -0.07210
N3963       N  0.82831227  0.70355923  0.95780686    -0.59720
N3964       N  0.86432556  0.69972013  0.53295254    -0.05330
N3965       N  0.85765913  0.67622864  0.54490387    -0.60970
N3966       N  0.84439135  0.71722612  0.53174683    -0.07240
N3967       N  0.82358865  0.70512782  0.54272426    -0.59990
N3968       N  0.86749297  0.69924500  0.97301702    -0.04970
N3969       N  0.86366917  0.67638119  0.95880777    -0.61060
Mn3970     Mn  0.89624470  0.69950564  0.50448598     1.18440
C3971       C  0.83950461  0.67910689  0.94924572     0.97230
C3972       C  0.83249913  0.67972326  0.55108266     0.97900
N3973       N  0.94595724  0.78250610  0.97252248    -0.07260
N3974       N  0.95596364  0.78018083  0.94805073    -0.63570
N3975       N  0.92553232  0.80196914  0.53626657    -0.06060
N3976       N  0.92194121  0.81280304  0.56043447    -0.64240
N3977       N  0.94461323  0.78363857  0.53652551    -0.06770
N3978       N  0.95457465  0.78195264  0.56096766    -0.63830
N3979       N  0.92765306  0.80171485  0.97273565    -0.05660
N3980       N  0.92489274  0.81271649  0.94868481    -0.64520
Mn3981     Mn  0.94621786  0.75098193  0.50494510     1.10660
C3982       C  0.94258901  0.79926482  0.93336511     0.98460
C3983       C  0.94023177  0.80024839  0.57564846     0.98530
N3984       N  0.84499572  0.78772883  0.53092706    -0.06770
N3985       N  0.82427556  0.80115191  0.54052943    -0.62150
N3986       N  0.86846208  0.80337560  0.97199386    -0.06090
N3987       N  0.86471369  0.82636793  0.95821960    -0.58880
N3988       N  0.84759565  0.78701441  0.97152905    -0.07400
N3989       N  0.82867114  0.79995266  0.95814400    -0.61710
N3990       N  0.86549016  0.80469107  0.53203220    -0.06390
N3991       N  0.85926325  0.82903315  0.54276292    -0.58900
Mn3992     Mn  0.84500418  0.75195299  0.50151037     1.20190
Mn3993     Mn  0.89739532  0.80316665  0.50347550     1.10090
Cl3994     Cl  0.89562488  0.75142534  0.50370394    -0.86870
C3995       C  0.83373350  0.82684800  0.54791282     0.95460
C3996       C  0.84013386  0.82423600  0.94950931     0.95260
N3997       N  0.71969239  0.53763833  0.60666724    -0.07020
N3998       N  0.70936889  0.55090379  0.58580706    -0.59140
N3999       N  0.77827402  0.55427747  0.62749881    -0.06700
N4000       N  0.78945407  0.57841723  0.62208380    -0.61270
N4001       N  0.77724771  0.53793923  0.60594188    -0.06300
N4002       N  0.78700948  0.55200379  0.58515506    -0.59120
N4003       N  0.71987617  0.55476926  0.62768574    -0.05980
N4004       N  0.70923956  0.57900162  0.62174461    -0.61620
C4005       C  0.70287205  0.57663784  0.59578837     0.95150
C4006       C  0.79470930  0.57721277  0.59582682     0.94930
N4007       N  0.78109874  0.53318299  0.70730564    -0.07210
N4008       N  0.80518863  0.53111161  0.71675382    -0.59720
N4009       N  0.71874211  0.55291920  0.68950768    -0.05330
N4010       N  0.69570047  0.56499126  0.68712716    -0.60970
N4011       N  0.71813159  0.53318811  0.70787745    -0.07240
N4012       N  0.69427342  0.53118681  0.71793319    -0.59990
N4013       N  0.78020224  0.55293968  0.68900939    -0.04970
N4014       N  0.80328278  0.56497572  0.68608955    -0.61060
Mn4015     Mn  0.74924857  0.55384143  0.65900624     1.18440
C4016       C  0.81872326  0.55144055  0.70365725     0.97230
C4017       C  0.68060709  0.55151950  0.70513940     0.97900
N4018       N  0.77673666  0.96677701  0.60477200    -0.07260
N4019       N  0.78620988  0.95355189  0.58330219    -0.63570
N4020       N  0.71871014  0.95046621  0.62748825    -0.06060
N4021       N  0.70549908  0.92734588  0.62302882    -0.64240
N4022       N  0.71907564  0.96669584  0.60609187    -0.06770
N4023       N  0.70689351  0.95339910  0.58602604    -0.63830
N4024       N  0.77728341  0.94953925  0.62549246    -0.05660
N4025       N  0.78771475  0.92534997  0.61878270    -0.64520
Mn4026     Mn  0.74821199  0.50223658  0.60502480     1.10660
C4027       C  0.79305858  0.92775023  0.59261951     0.98460
C4028       C  0.69809937  0.92905309  0.59739904     0.98530
N4029       N  0.71861064  0.96848545  0.70809589    -0.06770
N4030       N  0.69566283  0.96843934  0.72025256    -0.62150
N4031       N  0.77993031  0.95028391  0.68721592    -0.06090
N4032       N  0.80286022  0.93817830  0.68432239    -0.58880
N4033       N  0.78044914  0.96874203  0.70692150    -0.07400
N4034       N  0.80394386  0.96943094  0.71791399    -0.61710
N4035       N  0.71864000  0.94981886  0.68861140    -0.06390
N4036       N  0.69589073  0.93676276  0.68709210    -0.58900
Mn4037     Mn  0.74955678  0.00106220  0.70915188     1.20190
Mn4038     Mn  0.74872693  0.94994308  0.65761326     1.10090
Cl4039     Cl  0.74894973  0.00177513  0.65742912    -0.86870
C4040       C  0.68166888  0.94828502  0.70711073     0.95460
C4041       C  0.81768891  0.95010263  0.70368076     0.95260
N4042       N  0.71783605  0.53300346  0.80308145    -0.07020
N4043       N  0.69452348  0.53206544  0.79167761    -0.59140
N4044       N  0.77921032  0.55355920  0.82092510    -0.06700
N4045       N  0.80184053  0.56681056  0.82244207    -0.61270
N4046       N  0.77957782  0.53447499  0.80179811    -0.06300
N4047       N  0.80262709  0.53444614  0.78989821    -0.59120
N4048       N  0.71797299  0.55179368  0.82252789    -0.05980
N4049       N  0.69492751  0.56387723  0.82476000    -0.61620
C4050       C  0.68039650  0.55162885  0.80526753     0.95150
C4051       C  0.81632164  0.55493433  0.80285265     0.94930
N4052       N  0.78043244  0.53662388  0.90298098    -0.07210
N4053       N  0.79411362  0.54860266  0.92266463    -0.59720
N4054       N  0.72149392  0.55308194  0.88466156    -0.05330
N4055       N  0.71003670  0.57663242  0.89166844    -0.60970
N4056       N  0.72247866  0.53545815  0.90506316    -0.07240
N4057       N  0.71190262  0.54747714  0.92654764    -0.59990
N4058       N  0.77977788  0.55373308  0.88222039    -0.04970
N4059       N  0.79356894  0.57652892  0.88676326    -0.61060
Mn4060     Mn  0.74946689  0.55329739  0.85214996     1.18440
C4061       C  0.80262105  0.57315709  0.91169278     0.97230
C4062       C  0.70408249  0.57300632  0.91755991     0.97900
N4063       N  0.78159268  0.96978776  0.80274477    -0.07260
N4064       N  0.80575044  0.97231600  0.79342818    -0.63570
N4065       N  0.71928436  0.94912838  0.82214568    -0.06060
N4066       N  0.69625916  0.93689366  0.82504938    -0.64240
N4067       N  0.71850090  0.96830835  0.80328118    -0.06770
N4068       N  0.69464217  0.96958076  0.79320107    -0.63830
N4069       N  0.78079402  0.94983340  0.82088341    -0.05660
N4070       N  0.80391519  0.93811023  0.82374340    -0.64520
Mn4071     Mn  0.74940917  0.50121161  0.80110403     1.10660
C4072       C  0.81936844  0.95201226  0.80639828     0.98460
C4073       C  0.68112033  0.94946663  0.80657065     0.98530
N4074       N  0.72336417  0.96536133  0.90486540    -0.06770
N4075       N  0.71451904  0.95211043  0.92645372    -0.62150
N4076       N  0.78066851  0.94902951  0.88212420    -0.06090
N4077       N  0.79387372  0.92609791  0.88708903    -0.59300
N4078       N  0.78091864  0.96627381  0.90300059    -0.07400
N4079       N  0.79370298  0.95429557  0.92310841    -0.61710
N4080       N  0.72240780  0.94805475  0.88399134    -0.06390
N4081       N  0.71242517  0.92366868  0.89080431    -0.58900
Mn4082     Mn  0.75180246  0.50100684  0.90476606     1.20190
Mn4083     Mn  0.75063109  0.94881676  0.85167669     1.10090
Cl4084     Cl  0.75025437  0.50110592  0.85266852    -0.86870
C4085       C  0.70771601  0.92618651  0.91710381     0.95460
C4086       C  0.80207030  0.92955031  0.91236829     0.95260
N4087       N  0.52861473  0.66457846  0.72031471    -0.07020
N4088       N  0.53765236  0.68697809  0.70729303    -0.59140
N4089       N  0.97054401  0.64348509  0.70401749    -0.06700
N4090       N  0.95689050  0.64964043  0.68260199    -0.61270
N4091       N  0.97086029  0.66488034  0.72107152    -0.06300
N4092       N  0.95827521  0.68659409  0.71040185    -0.59120
N4093       N  0.52999542  0.64238174  0.70430287    -0.05980
N4094       N  0.54136728  0.64890221  0.68159402    -0.61620
C4095       C  0.54602971  0.67664664  0.68326622     0.95150
C4096       C  0.94909569  0.67630066  0.68662720     0.94930
N4097       N  0.96826751  0.55735604  0.71934985    -0.07210
N4098       N  0.94532519  0.54455269  0.71859355    -0.59720
N4099       N  0.53040341  0.57773026  0.70337657    -0.05330
N4100       N  0.55388529  0.58040878  0.69275616    -0.60970
N4101       N  0.52988199  0.55661359  0.72028419    -0.07240
N4102       N  0.55301564  0.54437473  0.72121688    -0.59990
N4103       N  0.96851486  0.57852114  0.70253159    -0.04970
N4104       N  0.94570636  0.58079175  0.69035572    -0.61060
Mn4105     Mn  0.49984481  0.61008679  0.70330714     1.18440
C4106       C  0.93145530  0.55916966  0.70018281     0.97230
C4107       C  0.56777538  0.55928378  0.70375471     0.97900
N4108       N  0.97116281  0.66282148  0.78842290    -0.07260
N4109       N  0.95846612  0.68372265  0.80058826    -0.63570
N4110       N  0.52986379  0.63937358  0.80312744    -0.06060
N4111       N  0.54401643  0.64417487  0.82464239    -0.64240
N4112       N  0.52964123  0.66166615  0.78740005    -0.06770
N4113       N  0.54295023  0.68245132  0.79905742    -0.63830
N4114       N  0.97060377  0.64034335  0.80386751    -0.05660
N4115       N  0.95680865  0.64502145  0.82558903    -0.64520
Mn4116     Mn  0.00004611  0.66440694  0.75443997     1.10660
C4117       C  0.94898430  0.67184761  0.82347379     0.98460
C4118       C  0.55236072  0.67086003  0.82200372     0.98530
N4119       N  0.52939417  0.55480726  0.78169492    -0.06770
N4120       N  0.55246202  0.54259008  0.78006366    -0.62150
N4121       N  0.96793139  0.57571328  0.80021705    -0.06090
N4122       N  0.94449490  0.57855100  0.81097316    -0.58880
N4123       N  0.96758541  0.55620736  0.78139176    -0.07400
N4124       N  0.94388222  0.54543899  0.77917411    -0.61710
N4125       N  0.52974557  0.57432530  0.80046775    -0.06390
N4126       N  0.55296891  0.57561370  0.81196328    -0.58900
Mn4127     Mn  0.49868955  0.55473488  0.75071515     1.20190
Mn4128     Mn  0.49956257  0.60695644  0.80238421     1.10090
Cl4129     Cl  0.49947572  0.60930531  0.75272679    -0.86870
C4130       C  0.56702927  0.55556608  0.79918954     0.95460
C4131       C  0.92957634  0.55942533  0.79778148     0.95260
N4132       N  0.53031235  0.94632438  0.72660158    -0.07020
N4133       N  0.55402097  0.95718341  0.72888597    -0.59140
N4134       N  0.96831930  0.92657396  0.70823813    -0.06700
N4135       N  0.94499242  0.92426132  0.69710785    -0.61270
N4136       N  0.96825017  0.94592579  0.72718437    -0.06300
N4137       N  0.94473568  0.95695103  0.72936798    -0.59120
N4138       N  0.53006840  0.92675004  0.70783009    -0.05980
N4139       N  0.55349776  0.92409310  0.69706995    -0.61620
C4140       C  0.56831887  0.94332712  0.71021145     0.95150
C4141       C  0.93041748  0.94340914  0.71038235     0.94930
N4142       N  0.97015658  0.83950504  0.72118016    -0.07210
N4143       N  0.95808501  0.81813377  0.70906841    -0.59720
N4144       N  0.52845970  0.86181515  0.70409185    -0.05330
N4145       N  0.54167744  0.85717344  0.68200062    -0.60970
N4146       N  0.52841071  0.83931527  0.71952201    -0.07240
N4147       N  0.54085134  0.81841853  0.70699757    -0.59990
N4148       N  0.96917561  0.86185951  0.70558339    -0.04970
N4149       N  0.95556127  0.85645726  0.68382186    -0.61060
Mn4150     Mn  0.99901446  0.89479604  0.70601870     1.18440
C4151       C  0.94843936  0.82931993  0.68604224     0.97230
C4152       C  0.54958028  0.83032826  0.68381727     0.97900
N4153       N  0.96898733  0.94518310  0.78904488    -0.07260
N4154       N  0.94611791  0.95800907  0.78976855    -0.63570
N4155       N  0.53108154  0.92475429  0.80508591    -0.06060
N4156       N  0.55446683  0.92235537  0.81596259    -0.64240
N4157       N  0.53074813  0.94567495  0.78797989    -0.06770
N4158       N  0.55393078  0.95803638  0.78709346    -0.63830
N4159       N  0.96914103  0.92415137  0.80603434    -0.05660
N4160       N  0.94636314  0.92200697  0.81831683    -0.64520
Mn4161     Mn  0.99950366  0.94731804  0.75758913     1.10660
C4162       C  0.93223108  0.94354791  0.80837865     0.98460
C4163       C  0.56842639  0.94355531  0.80498899     0.98530
N4164       N  0.52996990  0.83845113  0.78681840    -0.06770
N4165       N  0.54425420  0.81773959  0.79702179    -0.62150
N4166       N  0.97083496  0.85931713  0.80466708    -0.06090
N4167       N  0.95766372  0.85309545  0.82642080    -0.58880
N4168       N  0.97149838  0.83762844  0.78799848    -0.07400
N4169       N  0.95962689  0.81576039  0.79930751    -0.61710
N4170       N  0.53017516  0.86009378  0.80355797    -0.06390
N4171       N  0.54526662  0.85519837  0.82419307    -0.58900
Mn4172     Mn  0.00005298  0.83769944  0.75390752     1.20190
Mn4173     Mn  0.00025403  0.89244937  0.80520005     1.10090
Cl4174     Cl  0.99970400  0.89280720  0.75566846    -0.86870
C4175       C  0.55423047  0.82902797  0.82009524     0.95460
C4176       C  0.95043959  0.82612759  0.82300386     0.95260
C4177       C  0.90345142  0.94595916  0.81150625    -0.06370
C4178       C  0.88785005  0.92152948  0.81118999    -0.33800
C4179       C  0.86054176  0.92331279  0.80943375     0.35450
C4180       C  0.84831394  0.94977046  0.80728125    -0.06730
C4181       C  0.86384082  0.97419270  0.80892102    -0.33700
C4182       C  0.89112520  0.97237969  0.81147261     0.35360
H4183       H  0.89687758  0.90093033  0.81128344     0.15730
O4184       O  0.84602463  0.89897854  0.80870127    -0.61200
H4185       H  0.85470493  0.99467303  0.80893115     0.15740
O4186       O  0.90575698  0.99650685  0.81334768    -0.61290
H4187       H  0.90577448  0.50154152  0.83270207     0.42740
H4188       H  0.84378975  0.89350399  0.82774847     0.42690
C4189       C  0.59722398  0.94481949  0.80593632    -0.06370
C4190       C  0.60993712  0.96748978  0.81853411    -0.33800
C4191       C  0.63726610  0.96865447  0.81957971     0.35450
C4192       C  0.65229663  0.94755051  0.80692555    -0.06730
C4193       C  0.63956608  0.92463649  0.79471895    -0.33700
C4194       C  0.61221885  0.92308519  0.79432872     0.35360
H4195       H  0.59864944  0.98399858  0.82806540     0.15730
O4196       O  0.64899713  0.98959792  0.83439408    -0.61200
H4197       H  0.65083626  0.90816002  0.78512480     0.15740
O4198       O  0.60027575  0.90081668  0.78157178    -0.61290
H4199       H  0.59833112  0.88611520  0.79550321     0.42740
H4200       H  0.65882482  0.00105532  0.82133515     0.42690
C4201       C  0.84504369  0.55861801  0.80054163    -0.06370
C4202       C  0.85845217  0.54356688  0.78070983    -0.33800
C4203       C  0.88565006  0.54350180  0.77996591     0.35450
C4204       C  0.90045873  0.55876092  0.79904320    -0.06730
C4205       C  0.88704905  0.57471314  0.81841228    -0.33700
C4206       C  0.85964270  0.57487102  0.81918443     0.35360
H4207       H  0.84785650  0.53106978  0.76601086     0.15730
O4208       O  0.89753891  0.52817895  0.76034394    -0.61200
H4209       H  0.89778548  0.58706987  0.83308861     0.15740
O4210       O  0.84745611  0.59041220  0.83871777    -0.61290
H4211       H  0.84560008  0.60953655  0.83105190     0.42740
H4212       H  0.90387729  0.54260186  0.74776147     0.42690
C4213       C  0.59597693  0.55342729  0.80127645    -0.06370
C4214       C  0.60918286  0.56723100  0.82233284    -0.33800
C4215       C  0.63654531  0.56750175  0.82364228     0.35450
C4216       C  0.65144627  0.55416797  0.80337597    -0.06730
C4217       C  0.63820319  0.54072728  0.78221960    -0.33700
C4218       C  0.61090460  0.53967509  0.78136679     0.35360
H4219       H  0.59826190  0.57787730  0.83796512     0.15730
O4220       O  0.64836169  0.58015325  0.84530298    -0.61200
H4221       H  0.64914416  0.53072797  0.76634090     0.15740
O4222       O  0.59913112  0.52544052  0.76065620    -0.61290
H4223       H  0.59346426  0.50727416  0.76848500     0.42740
H4224       H  0.65010249  0.60029831  0.84040655     0.42690
C4225       C  0.84639457  0.94692478  0.70528160    -0.06370
C4226       C  0.85922969  0.95364193  0.72926976    -0.33800
C4227       C  0.88638784  0.95225022  0.73101071     0.35450
C4228       C  0.90150846  0.94458655  0.70857083    -0.06730
C4229       C  0.88870422  0.93737754  0.68460207    -0.33700
C4230       C  0.86140821  0.93864073  0.68276200     0.35360
H4231       H  0.84816208  0.95986935  0.74683168     0.15730
O4232       O  0.89795190  0.95728076  0.75519721    -0.61200
H4233       H  0.89989412  0.93122353  0.66710239     0.15740
O4234       O  0.84975260  0.93232633  0.65867135    -0.61290
H4235       H  0.84878894  0.95050427  0.64899943     0.42740
H4236       H  0.90260558  0.97750041  0.75506856     0.42690
C4237       C  0.59736493  0.94393488  0.70924127    -0.06370
C4238       C  0.61136629  0.95591115  0.73071399    -0.33800
C4239       C  0.63868943  0.95638700  0.73085835     0.35450
C4240       C  0.65284524  0.94453980  0.70939741    -0.06730
C4241       C  0.63885776  0.93167740  0.68826791    -0.33700
C4242       C  0.61145715  0.93129377  0.68807240     0.35360
H4243       H  0.60109576  0.96488361  0.74762059     0.15730
O4244       O  0.65133420  0.96925425  0.75179126    -0.61200
H4245       H  0.64912880  0.92263626  0.67130820     0.15740
O4246       O  0.59872542  0.91934383  0.66660520    -0.61290
H4247       H  0.59823657  0.89886202  0.67042076     0.42740
H4248       H  0.65363673  0.98905958  0.74619150     0.42690
C4249       C  0.84760453  0.55356504  0.70267441    -0.06370
C4250       C  0.86272690  0.52899701  0.70119273    -0.33800
C4251       C  0.88992098  0.53059039  0.69812594     0.35450
C4252       C  0.90262189  0.55694719  0.69747123    -0.06730
C4253       C  0.88740590  0.58150382  0.69794277    -0.33700
C4254       C  0.86014474  0.57993159  0.70031986     0.35360
H4255       H  0.85336362  0.50852297  0.70174329     0.15730
O4256       O  0.90397477  0.50627731  0.69556749    -0.61200
H4257       H  0.89672213  0.60203564  0.69747150     0.15740
O4258       O  0.84595534  0.60435554  0.70077113    -0.61290
H4259       H  0.84432595  0.60942186  0.72003652     0.42740
H4260       H  0.91128429  0.00280513  0.71361027     0.42690
C4261       C  0.59665166  0.55758881  0.70261959    -0.06370
C4262       C  0.60889733  0.53130654  0.70063861    -0.33800
C4263       C  0.63620003  0.52937069  0.70087812     0.35450
C4264       C  0.65173828  0.55353917  0.70492329    -0.06730
C4265       C  0.63957969  0.57992273  0.70605875    -0.33700
C4266       C  0.61229222  0.58210585  0.70465518     0.35360
H4267       H  0.59728995  0.51231027  0.69828959     0.15730
O4268       O  0.64764187  0.50400455  0.69550989    -0.61200
H4269       H  0.65126614  0.59888894  0.70813571     0.15740
O4270       O  0.60108330  0.60823003  0.70653321    -0.61290
H4271       H  0.60088948  0.61553799  0.68792308     0.42740
H4272       H  0.64929774  0.00310769  0.67569853     0.42690
C4273       C  0.79850542  0.90239010  0.57626550    -0.06370
C4274       C  0.81580252  0.90359341  0.55470137    -0.33800
C4275       C  0.82571738  0.87863345  0.54362911     0.35450
C4276       C  0.81824989  0.85214018  0.55422947    -0.06730
C4277       C  0.79849247  0.85093581  0.57339260    -0.33700
C4278       C  0.78844122  0.87583584  0.58429669     0.35360
H4279       H  0.82296218  0.92374450  0.54763665     0.15730
O4280       O  0.84314394  0.88028770  0.52278105    -0.61200
H4281       H  0.79207526  0.83079641  0.58119159     0.15740
O4282       O  0.76967029  0.87390502  0.60382183    -0.61290
H4283       H  0.75292210  0.87724424  0.59442244     0.42740
H4284       H  0.85978338  0.88674047  0.53095579     0.42690
C4285       C  0.80041389  0.60362248  0.58112713    -0.06370
C4286       C  0.79559188  0.62952340  0.59441466    -0.33800
C4287       C  0.80344742  0.65517727  0.58341742     0.35450
C4288       C  0.81655210  0.65533499  0.55888348    -0.06730
C4289       C  0.81949161  0.62988052  0.54443517    -0.33700
C4290       C  0.81133663  0.60409440  0.55532374     0.35360
H4291       H  0.78652593  0.62998325  0.61404139     0.15730
O4292       O  0.80063023  0.67953589  0.59805919    -0.61200
H4293       H  0.82956097  0.62983851  0.52530890     0.15740
O4294       O  0.81539040  0.57958557  0.54125067    -0.61290
H4295       H  0.83327673  0.57360489  0.54609364     0.42740
H4296       H  0.78341626  0.68710253  0.59271396     0.42690
C4297       C  0.82759643  0.84963223  0.93867210    -0.06370
C4298       C  0.84317817  0.86665569  0.92218216    -0.33800
C4299       C  0.83627594  0.89421625  0.91632510     0.35450
C4300       C  0.81307543  0.90543927  0.92650169    -0.06730
C4301       C  0.79703559  0.88858873  0.94287379    -0.33700
C4302       C  0.80438976  0.86085701  0.94934033     0.35360
H4303       H  0.86130469  0.85872879  0.91422218     0.15730
O4304       O  0.85175026  0.90968680  0.89938644    -0.61200
H4305       H  0.77841519  0.89654249  0.94976259     0.15740
O4306       O  0.78906283  0.84520352  0.96622562    -0.61290
H4307       H  0.79548686  0.84967329  0.98455176     0.42740
H4308       H  0.86355221  0.92063277  0.91133186     0.42690
C4309       C  0.81384715  0.59756329  0.92561195    -0.06370
C4310       C  0.79839232  0.61328529  0.94351033    -0.33800
C4311       C  0.80491669  0.64140389  0.94979362     0.35450
C4312       C  0.82683738  0.65403996  0.93770708    -0.06730
C4313       C  0.84202841  0.63813733  0.91983054    -0.33700
C4314       C  0.83586815  0.61019085  0.91402945     0.35360
H4315       H  0.78076079  0.60413462  0.95176090     0.15730
O4316       O  0.79062575  0.65576734  0.96862902    -0.61200
H4317       H  0.85951015  0.64717640  0.91109900     0.15740
O4318       O  0.85101514  0.59554067  0.89612336    -0.61290
H4319       H  0.86415214  0.58573352  0.90724668     0.42740
H4320       H  0.77605497  0.66433252  0.95849870     0.42690
C4321       C  0.94295414  0.80108611  0.90354017    -0.06370
C4322       C  0.96553484  0.79423698  0.88913773    -0.33800
C4323       C  0.96675244  0.79836102  0.86128355     0.35450
C4324       C  0.94530314  0.80950082  0.84730008    -0.06730
C4325       C  0.92221812  0.81466732  0.86136554    -0.33700
C4326       C  0.92086517  0.81047083  0.88914448     0.35360
H4327       H  0.98282592  0.78733298  0.89967791     0.15730
O4328       O  0.98996697  0.79445212  0.84832658    -0.61200
H4329       H  0.90584039  0.82423524  0.85118223     0.15740
O4330       O  0.89810354  0.81685736  0.90212290    -0.61290
H4331       H  0.89979902  0.83712791  0.90672778     0.42740
H4332       H  0.99924354  0.81278563  0.84987023     0.42690
C4333       C  0.94130696  0.80253451  0.60525468    -0.06370
C4334       C  0.96541085  0.80106298  0.61830175    -0.33800
C4335       C  0.96732195  0.80708488  0.64576055     0.35450
C4336       C  0.94489180  0.81328244  0.66094247    -0.06730
C4337       C  0.92051595  0.81278298  0.64830025    -0.33700
C4338       C  0.91857320  0.80725889  0.62065700     0.35360
H4339       H  0.98305931  0.79743330  0.60685537     0.15730
O4340       O  0.99149329  0.81010808  0.65708869    -0.61200
H4341       H  0.90319263  0.81850337  0.65947388     0.15740
O4342       O  0.89446038  0.80758408  0.60876192    -0.61290
H4343       H  0.88883016  0.78756886  0.60803727     0.42740
H4344       H  0.99745648  0.82928115  0.65204704     0.42690
C4345       C  0.93955488  0.69747336  0.90415473    -0.06370
C4346       C  0.92197265  0.67812040  0.89251963    -0.33800
C4347       C  0.92231782  0.67247073  0.86490225     0.35450
C4348       C  0.94002674  0.68662938  0.84804369    -0.06730
C4349       C  0.95530014  0.70845651  0.85903142    -0.33700
C4350       C  0.95566987  0.71342537  0.88692714     0.35360
H4351       H  0.90866429  0.66618187  0.90498064     0.15730
O4352       O  0.90622925  0.65184220  0.85464969    -0.61200
H4353       H  0.96863026  0.72000800  0.84633754     0.15740
O4354       O  0.97268580  0.73304474  0.89709136    -0.61290
H4355       H  0.98593671  0.72208947  0.90695982     0.42740
H4356       H  0.91395094  0.63372297  0.86040037     0.42690
C4357       C  0.93661606  0.70196077  0.60731361    -0.06370
C4358       C  0.95306683  0.71858612  0.62376640    -0.33800
C4359       C  0.95413355  0.71420147  0.65176912     0.35450
C4360       C  0.93924134  0.69237361  0.66341021    -0.06730
C4361       C  0.92069021  0.67841699  0.64749626    -0.33700
C4362       C  0.91907477  0.68314227  0.61992766     0.35360
H4363       H  0.96570417  0.73431567  0.61487272     0.15730
O4364       O  0.97035313  0.73063567  0.66729277    -0.61200
H4365       H  0.90894848  0.66167983  0.65608273     0.15740
O4366       O  0.90138430  0.66759263  0.60536291    -0.61290
H4367       H  0.88508111  0.67875590  0.60574067     0.42740
H4368       H  0.98682377  0.72003820  0.66902985     0.42690
C4369       C  0.68283930  0.85003098  0.95288727    -0.06370
C4370       C  0.70450684  0.84966711  0.93601497    -0.33800
C4371       C  0.71459824  0.87506061  0.92620121     0.35450
C4372       C  0.70289549  0.90101615  0.93342846    -0.06730
C4373       C  0.68370423  0.90150192  0.95315413    -0.33700
C4374       C  0.67370626  0.87622138  0.96304785     0.35360
H4375       H  0.71228945  0.82983021  0.92880268     0.15730
O4376       O  0.73534720  0.87434869  0.90880983    -0.61200
H4377       H  0.67500914  0.92128421  0.95930874     0.15740
O4378       O  0.65361673  0.87739687  0.98119440    -0.61290
H4379       H  0.66201369  0.87608277  0.99905489     0.42740
H4380       H  0.72816252  0.86732263  0.89152245     0.42690
C4381       C  0.69660148  0.59713805  0.93423039    -0.06370
C4382       C  0.67271680  0.59656252  0.94731826    -0.33800
C4383       C  0.66129013  0.62162066  0.95597381     0.35450
C4384       C  0.67411801  0.64792909  0.95185520    -0.06730
C4385       C  0.69932049  0.64803242  0.94117373    -0.33700
C4386       C  0.71050847  0.62281458  0.93212279     0.35360
H4387       H  0.66196155  0.57693813  0.94904950     0.15730
O4388       O  0.63730318  0.62000779  0.96807682    -0.61200
H4389       H  0.70978777  0.66771067  0.93858350     0.15740
O4390       O  0.73478938  0.62343590  0.92055921    -0.61290
H4391       H  0.73208192  0.63091775  0.90222918     0.42740
H4392       H  0.62459065  0.61793220  0.95316861     0.42690
C4393       C  0.68866651  0.90306132  0.58409993    -0.06370
C4394       C  0.67547353  0.88374137  0.60063024    -0.33800
C4395       C  0.67086446  0.85615525  0.59235265     0.35450
C4396       C  0.67844007  0.84736622  0.56670035    -0.06730
C4397       C  0.69174739  0.86636981  0.54989370    -0.33700
C4398       C  0.69713797  0.89411015  0.55856022     0.35360
H4399       H  0.66917014  0.88990180  0.62058402     0.15730
O4400       O  0.65761099  0.83821865  0.60903536    -0.61200
H4401       H  0.69696514  0.86004271  0.52967263     0.15740
O4402       O  0.71121217  0.91180918  0.54237626    -0.61290
H4403       H  0.69825012  0.92015157  0.53000642     0.42740
H4404       H  0.67131392  0.82768081  0.61873477     0.42690
C4405       C  0.69644083  0.60187383  0.58003581    -0.06370
C4406       C  0.67745984  0.60053490  0.56003199    -0.33800
C4407       C  0.66697161  0.62539276  0.54968621     0.35450
C4408       C  0.67566539  0.65200272  0.55933674    -0.06730
C4409       C  0.69685357  0.65325213  0.57685778    -0.33700
C4410       C  0.70723579  0.62839562  0.58731664     0.35360
H4411       H  0.66958758  0.58035144  0.55364612     0.15730
O4412       O  0.64804562  0.62348432  0.53026561    -0.61200
H4413       H  0.70434482  0.67344444  0.58369204     0.15740
O4414       O  0.72778137  0.63020071  0.60492466    -0.61290
H4415       H  0.72020773  0.63700668  0.62208077     0.42740
H4416       H  0.63193616  0.61771648  0.53981531     0.42690
C4417       C  0.56530929  0.80500240  0.89958142    -0.06370
C4418       C  0.55131898  0.78683995  0.88232639    -0.33800
C4419       C  0.55191112  0.79060602  0.85428061     0.35450
C4420       C  0.56513215  0.81391421  0.84337104    -0.06730
C4421       C  0.58152195  0.82979910  0.86019241    -0.33700
C4422       C  0.58166062  0.82567972  0.88792455     0.35360
H4423       H  0.53920912  0.77041897  0.89064072     0.15730
O4424       O  0.53751452  0.77309640  0.83804803    -0.61200
H4425       H  0.59211026  0.84769092  0.85214973     0.15740
O4426       O  0.59682311  0.84323011  0.90344800    -0.61290
H4427       H  0.58598132  0.86015367  0.90676799     0.42740
H4428       H  0.55046958  0.76111058  0.82868179     0.42690
C4429       C  0.56108225  0.80701995  0.60281283    -0.06370
C4430       C  0.54723600  0.78835547  0.61960340    -0.33800
C4431       C  0.54683235  0.79243066  0.64774723     0.35450
C4432       C  0.55945002  0.81609008  0.65922950    -0.06730
C4433       C  0.57556175  0.83251084  0.64278943    -0.33700
C4434       C  0.57648047  0.82826956  0.61507660     0.35360
H4435       H  0.53617906  0.77106883  0.61091168     0.15730
O4436       O  0.53221976  0.77470827  0.66338973    -0.61200
H4437       H  0.58569098  0.85062406  0.65118810     0.15740
O4438       O  0.59102293  0.84666923  0.60007537    -0.61290
H4439       H  0.60831412  0.83763773  0.59826448     0.42740
H4440       H  0.54431610  0.75951798  0.66876370     0.42690
C4441       C  0.55941357  0.68655909  0.84656224    -0.06370
C4442       C  0.57943796  0.67578276  0.86257772    -0.33800
C4443       C  0.58031073  0.68141631  0.89020332     0.35450
C4444       C  0.56083918  0.69822083  0.90239507    -0.06730
C4445       C  0.54208006  0.71075323  0.88590253    -0.33700
C4446       C  0.54104583  0.70481177  0.85832174     0.35360
H4447       H  0.59333234  0.66112530  0.85400650     0.15730
O4448       O  0.59999013  0.66977647  0.90507581    -0.61200
H4449       H  0.52732987  0.72400749  0.89466084     0.15740
O4450       O  0.52037918  0.71453225  0.84366205    -0.61290
H4451       H  0.50833585  0.69820876  0.84201565     0.42740
H4452       H  0.59415815  0.65025606  0.90892706     0.42690
C4453       C  0.54966640  0.70669338  0.60312555    -0.06370
C4454       C  0.52619112  0.69650647  0.61338309    -0.33800
C4455       C  0.52442810  0.68859900  0.64030172     0.35450
C4456       C  0.54581625  0.69258882  0.65790772    -0.06730
C4457       C  0.56869109  0.70498417  0.64805884    -0.33700
C4458       C  0.57075243  0.71190726  0.62073980     0.35360
H4459       H  0.50992999  0.69226612  0.60002658     0.15730
O4460       O  0.50242978  0.67469870  0.64878145    -0.61200
H4461       H  0.58552551  0.70738489  0.66102298     0.15740
O4462       O  0.59387341  0.72240652  0.61115816    -0.61290
H4463       H  0.59162446  0.74315435  0.61101977     0.42740
H4464       H  0.50363860  0.65541731  0.64108804     0.42690
loop_ 
_geom_bond_atom_site_label_1 
_geom_bond_atom_site_label_2 
_geom_bond_distance 
_geom_bond_site_symmetry_2 
_ccdc_geom_bond_type 
N1            N2   1.329       .  A
N1            N7   1.321       .  A
N1         Mn588   2.231       .  S
N2            C9   1.358       .  A
N3            N5   1.320       .  A
N3            N4   1.306       .  A
N3         Mn577   2.157       .  S
N4           C10   1.334       .  A
N5            N6   1.331       .  A
N5          Mn30   2.242       .  S
N6           C10   1.363       .  A
N7            N8   1.311       .  A
N7          Mn19   2.168       .  S
N8            C9   1.338       .  A
C9          C502   1.475       .  S
C10         C478   1.481       .  S
N11          N17   1.311       .  A
N11          N12   1.327       .  A
N11        Mn599   2.208       .  S
N12          C20   1.357       .  A
N13          N14   1.319       .  A
N13          N15   1.312       .  A
N13         Mn19   2.176       .  S
N14          C21   1.348       .  A
N15          N16   1.324       .  A
N15         Mn41   2.207       .  S
N16          C21   1.352       .  A
N17          N18   1.317       .  A
N17        Mn577   2.176       .  S
N18          C20   1.346       .  A
Mn19        N561   2.157   1_554  S
Mn19        N575   2.176   1_554  S
Mn19        Cl43   2.450       .  S
C20         C538   1.490       .  S
C21         C547   1.473       .  S
N22          N23   1.330       .  A
N22          N28   1.322       .  A
N22         Mn30   2.239       .  S
N23          C31   1.360       .  A
N24          N26   1.320       .  A
N24          N25   1.310       .  A
N24        Mn600   2.166       .  S
N25          C32   1.337       .  A
N26          N27   1.329       .  A
N26        Mn588   2.230       .  S
N27          C32   1.358       .  A
N28          N29   1.307       .  A
N28         Mn42   2.160       .  S
N29          C31   1.335       .  A
Mn30        N559   2.231       .  S
Mn30        N584   2.230       .  S
Mn30       Cl601   2.597       .  S
C31         C463   1.473       .  S
C32         C490   1.461       .  S
N33          N34   1.330       .  A
N33          N39   1.312       .  A
N33         Mn41   2.226       .  S
N34          C44   1.358       .  A
N35          N36   1.316       .  A
N35          N37   1.311       .  A
N35         Mn42   2.165       .  S
N36          C45   1.345       .  A
N37          N38   1.330       .  A
N37        Mn599   2.222       .  S
N38          C45   1.359       .  A
N39          N40   1.317       .  A
N39        Mn600   2.173       .  S
N40          C44   1.347       .  A
Mn41        N569   2.208   1_554  S
Mn41        N595   2.222   1_554  S
Mn41        Cl43   2.593       .  S
Mn42        N582   2.166       .  S
Mn42        N597   2.173       .  S
Mn42       Cl601   2.457       .  S
Cl43       Mn588   2.597       .  S
Cl43       Mn600   2.457       .  S
C44         C523   1.497       .  S
C45         C511   1.494       .  S
N46          N47   1.329       .  A
N46          N52   1.312       .  A
N46         Mn75   2.224       .  S
N47          C54   1.357       .  A
N48          N50   1.311       .  A
N48          N49   1.318       .  A
N48        Mn622   2.170       .  S
N49          C55   1.346       .  A
N50          N51   1.327       .  A
N50        Mn633   2.216       .  S
N51          C55   1.357       .  A
N52          N53   1.317       .  A
N52         Mn64   2.177       .  S
N53          C54   1.348       .  A
C54         C451   1.496       .  S
C55         C439   1.495       .  S
N56          N62   1.319       .  A
N56          N57   1.331       .  A
N56        Mn644   2.245       .  S
N57          C65   1.363       .  A
N58          N59   1.311       .  A
N58          N60   1.322       .  A
N58         Mn64   2.167       .  S
N59          C66   1.338       .  A
N60          N61   1.329       .  A
N60         Mn86   2.239       .  S
N61          C66   1.359       .  A
N62          N63   1.306       .  A
N62        Mn622   2.152       .  S
N63          C65   1.335       .  A
Mn64        N606   2.170   1_554  S
Mn64        N620   2.152   1_554  S
Mn64        Cl88   2.465       .  S
C65         C406   1.467       .  S
C66         C382   1.468       .  S
N67          N68   1.327       .  A
N67          N73   1.311       .  A
N67        Mn633   2.208       .  S
N68          C76   1.356       .  A
N69          N71   1.312       .  A
N69          N70   1.320       .  A
N69         Mn87   2.181       .  S
N70          C77   1.349       .  A
N71          N72   1.323       .  A
N71         Mn75   2.204       .  S
N72          C77   1.352       .  A
N73          N74   1.318       .  A
N73        Mn645   2.182       .  S
N74          C76   1.347       .  A
Mn75        N608   2.216   1_554  S
Mn75        N625   2.208   1_554  S
Mn75        Cl88   2.596       .  S
C76         C415   1.489       .  S
C77         C427   1.479       .  S
N78          N79   1.329       .  A
N78          N84   1.322       .  A
N78         Mn86   2.236       .  S
N79          C89   1.359       .  A
N80          N81   1.307       .  A
N80          N82   1.319       .  A
N80        Mn645   2.159       .  S
N81          C90   1.336       .  A
N82          N83   1.332       .  A
N82        Mn644   2.246       .  S
N83          C90   1.363       .  A
N84          N85   1.311       .  A
N84         Mn87   2.170       .  S
N85          C89   1.338       .  A
Mn86        N614   2.245   1_554  S
Mn86        N640   2.246   1_554  S
Mn86        Cl88   2.599       .  S
Mn87        N631   2.182   1_554  S
Mn87        N638   2.159   1_554  S
Mn87        Cl88   2.457       .  S
C89         C370   1.475       .  S
C90         C391   1.474       .  S
N91          N92   1.329       .  A
N91          N97   1.322       .  A
N91        Mn120   2.234       .  S
N92          C99   1.359       .  A
N93          N95   1.322       .  A
N93          N94   1.308       .  A
N93        Mn109   2.164       .  S
N94         C100   1.337       .  A
N95          N96   1.332       .  A
N95        Mn120   2.251       .  S
N96         C100   1.363       .  A
N97          N98   1.310       .  A
N97        Mn109   2.169       .  S
N98          C99   1.338       .  A
C99         C499   1.474       .  S
C100        C379   1.483       .  S
N101        N107   1.312       .  A
N101        N102   1.326       .  A
N101      Mn1247   2.220       .  S
N102        C110   1.356       .  A
N103        N104   1.321       .  A
N103        N105   1.313       .  A
N103       Mn109   2.182       .  S
N104        C111   1.348       .  A
N105        N106   1.326       .  A
N105      Mn1247   2.225       .  S
N106        C111   1.357       .  A
N107        N108   1.321       .  A
N107       Mn109   2.181       .  S
N108        C110   1.348       .  A
Mn109     Cl1249   2.471       .  S
C110        C343   1.485       .  S
C111        C358   1.484       .  S
N112        N113   1.330       .  A
N112        N118   1.321       .  A
N112      Mn1236   2.235       .  S
N113        C121   1.360       .  A
N114        N116   1.319       .  A
N114        N115   1.305       .  A
N114       Mn132   2.150       .  S
N115        C122   1.335       .  A
N116        N117   1.333       .  A
N116      Mn1236   2.249       .  S
N117        C122   1.365       .  A
N118        N119   1.310       .  A
N118       Mn132   2.170       .  S
N119        C121   1.338       .  A
Mn120      N1228   2.235   1_545  S
Mn120      N1232   2.249   1_545  S
Mn120     Cl1249   2.611       .  S
C121        C367   1.477       .  S
C122        C487   1.476       .  S
N123        N124   1.324       .  A
N123        N129   1.310       .  A
N123       Mn131   2.211       .  S
N124        C134   1.358       .  A
N125        N126   1.319       .  A
N125        N127   1.312       .  A
N125       Mn132   2.176       .  S
N126        C135   1.348       .  A
N127        N128   1.324       .  A
N127       Mn131   2.213       .  S
N128        C135   1.356       .  A
N129        N130   1.321       .  A
N129       Mn132   2.184       .  S
N130        C134   1.350       .  A
Mn131      N1217   2.220       .  S
Mn131      N1221   2.225       .  S
Mn131      Cl133   2.577       .  S
Mn132      Cl133   2.460       .  S
Cl133     Mn1225   2.471       .  S
Cl133     Mn1236   2.611       .  S
C134        C334   1.493       .  S
C135        C319   1.483       .  S
N136        N137   1.324       .  A
N136        N142   1.312       .  A
N136       Mn165   2.220       .  S
N137        C144   1.358       .  A
N138        N140   1.310       .  A
N138        N139   1.320       .  A
N138       Mn154   2.179       .  S
N139        C145   1.349       .  A
N140        N141   1.323       .  A
N140       Mn165   2.204       .  S
N141        C145   1.357       .  A
N142        N143   1.321       .  A
N142       Mn154   2.187       .  S
N143        C144   1.351       .  A
C144        C310   1.493       .  S
C145        C295   1.487       .  S
N146        N152   1.320       .  A
N146        N147   1.329       .  A
N146       Mn176   2.237       .  S
N147        C155   1.360       .  A
N148        N149   1.311       .  A
N148        N150   1.322       .  A
N148       Mn154   2.165       .  S
N149        C156   1.338       .  A
N150        N151   1.327       .  A
N150       Mn176   2.228       .  S
N151        C156   1.356       .  A
N152        N153   1.308       .  A
N152       Mn154   2.160       .  S
N153        C155   1.337       .  A
Mn154      Cl178   2.478       .  S
C155        C403   1.462       .  S
C156        C475   1.463       .  S
N157        N158   1.329       .  A
N157        N163   1.313       .  A
N157      Mn1281   2.232       .  S
N158        C166   1.359       .  A
N159        N161   1.313       .  A
N159        N160   1.322       .  A
N159       Mn177   2.179       .  S
N160        C167   1.348       .  A
N161        N162   1.324       .  A
N161      Mn1281   2.223       .  S
N162        C167   1.356       .  A
N163        N164   1.320       .  A
N163       Mn177   2.180       .  S
N164        C166   1.346       .  A
Mn165      N1273   2.231   1_545  S
Mn165      N1277   2.223   1_545  S
Mn165      Cl178   2.578       .  S
C166        C274   1.490       .  S
C167        C286   1.481       .  S
N168        N169   1.328       .  A
N168        N174   1.322       .  A
N168      Mn1292   2.228       .  S
N169        C179   1.357       .  A
N170        N171   1.309       .  A
N170        N172   1.320       .  A
N170       Mn177   2.162       .  S
N171        C180   1.337       .  A
N172        N173   1.329       .  A
N172      Mn1292   2.231       .  S
N173        C180   1.359       .  A
N174        N175   1.310       .  A
N174       Mn177   2.166       .  S
N175        C179   1.337       .  A
Mn176      N1284   2.229   1_545  S
Mn176      N1288   2.231   1_545  S
Mn176      Cl178   2.587       .  S
Mn177     Cl1294   2.482       .  S
Cl178     Mn1293   2.482   1_545  S
C179        C466   1.469       .  S
C180        C394   1.462       .  S
N181        N182   1.330       .  A
N181        N187   1.320       .  A
N181      Mn2442   2.245       .  S
N182        C189   1.361       .  A
N183        N185   1.320       .  A
N183        N184   1.311       .  A
N183      Mn2431   2.189       .  S
N184        C190   1.342       .  A
N185        N186   1.332       .  A
N185       Mn210   2.237       .  S
N186        C190   1.362       .  A
N187        N188   1.311       .  A
N187       Mn199   2.173   1_455  S
N188        C189   1.339       .  A
C189        C550   1.476       .  S
C190        C454   1.479       .  S
N191        N197   1.312       .  A
N191        N192   1.322       .  A
N191      Mn2453   2.212       .  S
N192        C200   1.356       .  A
N193        N194   1.322       .  A
N193        N195   1.313       .  A
N193       Mn199   2.199   1_455  S
N194        C201   1.351       .  A
N195        N196   1.324       .  A
N195       Mn221   2.207   1_455  S
N196        C201   1.354       .  A
N197        N198   1.323       .  A
N197      Mn2431   2.192       .  S
N198        C200   1.351       .  A
Mn199      N2415   2.189       .  S
Mn199      N2429   2.192       .  S
Mn199      Cl223   2.463       .  S
C200        C346   1.488       .  S
C201        C355   1.485       .  S
N202        N203   1.332       .  A
N202        N208   1.319       .  A
N202       Mn210   2.252       .  S
N203        C211   1.364       .  A
N204        N206   1.320       .  A
N204        N205   1.313       .  A
N204       Mn222   2.182   1_455  S
N205        C212   1.342       .  A
N206        N207   1.328       .  A
N206      Mn2442   2.240       .  S
N207        C212   1.361       .  A
N208        N209   1.312       .  A
N208      Mn2454   2.177       .  S
N209        C211   1.341       .  A
Mn210      N2413   2.245       .  S
Mn210      N2438   2.240       .  S
Mn210     Cl2455   2.615       .  S
C211        C442   1.481       .  S
C212        C535   1.473       .  S
N213        N214   1.322       .  A
N213        N219   1.312       .  A
N213       Mn221   2.205   1_455  S
N214        C224   1.354       .  A
N215        N216   1.323       .  A
N215        N217   1.314       .  A
N215      Mn2454   2.195       .  S
N216        C225   1.352       .  A
N217        N218   1.321       .  A
N217      Mn2453   2.211       .  S
N218        C225   1.355       .  A
N219        N220   1.322       .  A
N219       Mn222   2.196   1_455  S
N220        C224   1.353       .  A
Mn221      N2423   2.212       .  S
Mn221      N2449   2.211       .  S
Mn221      Cl223   2.591       .  S
Mn222      N2440   2.177       .  S
Mn222      N2447   2.195       .  S
Mn222      Cl223   2.477       .  S
Cl223     Mn2442   2.615   1_655  S
C224        C307   1.492       .  S
C225        C298   1.495       .  S
N226        N227   1.323       .  A
N226        N232   1.314       .  A
N226      Mn2487   2.211   1_455  S
N227        C234   1.354       .  A
N228        N230   1.313       .  A
N228        N229   1.322       .  A
N228       Mn244   2.187       .  S
N229        C235   1.350       .  A
N230        N231   1.321       .  A
N230       Mn255   2.206       .  S
N231        C235   1.355       .  A
N232        N233   1.322       .  A
N232      Mn2476   2.196   1_455  S
N233        C234   1.351       .  A
C234        C331   1.491       .  S
C235        C322   1.487       .  S
N236        N242   1.320       .  A
N236        N237   1.328       .  A
N236       Mn266   2.240       .  S
N237        C245   1.361       .  A
N238        N239   1.311       .  A
N238        N240   1.319       .  A
N238      Mn2476   2.181   1_455  S
N239        C246   1.342       .  A
N240        N241   1.334       .  A
N240      Mn2498   2.249       .  S
N241        C246   1.364       .  A
N242        N243   1.313       .  A
N242       Mn244   2.182       .  S
N243        C245   1.342       .  A
Mn244      N2464   2.196       .  S
Mn244      N2470   2.181       .  S
Mn244      Cl268   2.476       .  S
C245        C430   1.471       .  S
C246        C526   1.486       .  S
N247        N248   1.324       .  A
N247        N253   1.312       .  A
N247       Mn255   2.218       .  S
N248        C256   1.357       .  A
N249        N251   1.312       .  A
N249        N250   1.322       .  A
N249      Mn2499   2.198       .  S
N250        C257   1.351       .  A
N251        N252   1.324       .  A
N251      Mn2487   2.205   1_455  S
N252        C257   1.353       .  A
N253        N254   1.323       .  A
N253       Mn267   2.198       .  S
N254        C256   1.352       .  A
Mn255      N2458   2.211       .  S
Mn255      N2483   2.205       .  S
Mn255      Cl268   2.588       .  S
C256        C271   1.489       .  S
C257        C283   1.479       .  S
N258        N259   1.332       .  A
N258        N264   1.319       .  A
N258      Mn2498   2.245       .  S
N259        C269   1.364       .  A
N260        N261   1.312       .  A
N260        N262   1.319       .  A
N260       Mn267   2.174       .  S
N261        C270   1.340       .  A
N262        N263   1.329       .  A
N262       Mn266   2.243       .  S
N263        C270   1.361       .  A
N264        N265   1.309       .  A
N264      Mn2499   2.176       .  S
N265        C269   1.341       .  A
Mn266      N2472   2.249       .  S
Mn266      N2490   2.245       .  S
Mn266      Cl268   2.616       .  S
Mn267      N2481   2.198       .  S
Mn267      N2496   2.176       .  S
Mn267      Cl268   2.468       .  S
C269        C514   1.478       .  S
C270        C418   1.472       .  S
C271        C272   1.406       .  A
C271        C276   1.407       .  A
C272        C273   1.406       .  A
C272        H277   1.084       .  S
C273        C274   1.411       .  A
C273        O278   1.371       .  S
C274        C275   1.405       .  A
C275        C276   1.408       .  A
C275        H279   1.081       .  S
C276        O280   1.369       .  S
O278        H282   0.992       .  S
O280       H1397   0.992       .  S
H281       O1396   0.992   1_545  S
C283        C284   1.401       .  A
C283        C288   1.411       .  A
C284        C285   1.404       .  A
C284        H289   1.084       .  S
C285        C286   1.412       .  A
C285        O290   1.371       .  S
C286        C287   1.401       .  A
C287        C288   1.404       .  A
C287        H291   1.083       .  S
C288        O292   1.372       .  S
O290        H294   0.987       .  S
O292        H293   0.992       .  S
C295        C296   1.399       .  A
C295        C300   1.416       .  A
C296        C297   1.396       .  A
C296        H301   1.084       .  S
C297        C298   1.411       .  A
C297        O302   1.361       .  S
C298        C299   1.405       .  A
C299        C300   1.406       .  A
C299        H303   1.083       .  S
C300        O304   1.370       .  S
O302        H306   0.985       .  S
O304        H305   0.992       .  S
C307        C308   1.405       .  A
C307        C312   1.412       .  A
C308        C309   1.405       .  A
C308        H313   1.083       .  S
C309        C310   1.415       .  A
C309        O314   1.371       .  S
C310        C311   1.402       .  A
C311        C312   1.401       .  A
C311        H315   1.079       .  S
C312        O316   1.369       .  S
O314        H318   0.992       .  S
O316        H317   0.991       .  S
C319        C320   1.399       .  A
C319        C324   1.416       .  A
C320        C321   1.398       .  A
C320        H325   1.084       .  S
C321        C322   1.408       .  A
C321        O326   1.362       .  S
C322        C323   1.402       .  A
C323        C324   1.405       .  A
C323        H327   1.083       .  S
C324        O328   1.372       .  S
O326        H330   0.988       .  S
O328        H329   0.992       .  S
C331        C332   1.404       .  A
C331        C336   1.411       .  A
C332        C333   1.402       .  A
C332        H337   1.080       .  S
C333        C334   1.408       .  A
C333        O338   1.367       .  S
C334        C335   1.408       .  A
C335        C336   1.405       .  A
C335        H339   1.083       .  S
C336        O340   1.371       .  S
O338        H342   0.988       .  S
O340        H341   0.992       .  S
C343        C344   1.405       .  A
C343        C348   1.410       .  A
C344        C345   1.405       .  A
C344        H349   1.082       .  S
C345        C346   1.408       .  A
C345        O350   1.368       .  S
C346        C347   1.405       .  A
C347        C348   1.405       .  A
C347        H351   1.084       .  S
C348        O352   1.371       .  S
O350       H1470   0.990       .  S
O352        H353   0.992       .  S
H354       O1466   0.990       .  S
C355        C356   1.402       .  A
C355        C360   1.413       .  A
C356        C357   1.404       .  A
C356        H361   1.084       .  S
C357        C358   1.407       .  A
C357        O362   1.367       .  S
C358        C359   1.402       .  A
C359        C360   1.406       .  A
C359        H363   1.083       .  S
C360        O364   1.372       .  S
O362       H1482   0.992       .  S
O364        H365   0.992       .  S
H366       O1478   0.992       .  S
C367        C368   1.395       .  A
C367        C372   1.419       .  A
C368        C369   1.401       .  A
C368        H373   1.083       .  S
C369        C370   1.418       .  A
C369        O374   1.373       .  S
C370        C371   1.394       .  A
C371        C372   1.398       .  A
C371        H375   1.084       .  S
C372        O376   1.372       .  S
O374        H378   0.992       .  S
O376        H377   0.992       .  S
C379        C380   1.415       .  A
C379        C384   1.403       .  A
C380        C381   1.396       .  A
C380        H385   1.083       .  S
C381        C382   1.395       .  A
C381        O386   1.371       .  S
C382        C383   1.411       .  A
C383        C384   1.404       .  A
C383        H387   1.084       .  S
C384        O388   1.371       .  S
O386        H390   0.992       .  S
O388        H389   0.992       .  S
C391        C392   1.403       .  A
C391        C396   1.409       .  A
C392        C393   1.389       .  A
C392        H397   1.079       .  S
C393        C394   1.400       .  A
C393        O398   1.372       .  S
C394        C395   1.408       .  A
C395        C396   1.410       .  A
C395        H399   1.084       .  S
C396        O400   1.371       .  S
O398        H402   0.992       .  S
O400        H401   0.992       .  S
C403        C404   1.406       .  A
C403        C408   1.402       .  A
C404        C405   1.407       .  A
C404        H409   1.084       .  S
C405        C406   1.409       .  A
C405        O410   1.371       .  S
C406        C407   1.403       .  A
C407        C408   1.390       .  A
C407        H411   1.085       .  S
C408        O412   1.371       .  S
O410        H414   0.992       .  S
O412        H413   0.992       .  S
C415        C416   1.401       .  A
C415        C420   1.416       .  A
C416        C417   1.404       .  A
C416        H421   1.083       .  S
C417        C418   1.409       .  A
C417        O422   1.368       .  S
C418        C419   1.398       .  A
C419        C420   1.401       .  A
C419        H423   1.084       .  S
C420        O424   1.369       .  S
O422        H426   0.992       .  S
O424        H425   0.991       .  S
C427        C428   1.399       .  A
C427        C432   1.414       .  A
C428        C429   1.399       .  A
C428        H433   1.084       .  S
C429        C430   1.408       .  A
C429        O434   1.369       .  S
C430        C431   1.400       .  A
C431        C432   1.404       .  A
C431        H435   1.083       .  S
C432        O436   1.371       .  S
O434        H438   0.992       .  S
O436        H437   0.992       .  S
C439        C440   1.407       .  A
C439        C444   1.413       .  A
C440        C441   1.400       .  A
C440        H445   1.083       .  S
C441        C442   1.408       .  A
C441        O446   1.373       .  S
C442        C443   1.404       .  A
C443        C444   1.408       .  A
C443        H447   1.081       .  S
C444        O448   1.368       .  S
O446        H450   0.992       .  S
O448        H449   0.990       .  S
C451        C452   1.411       .  A
C451        C456   1.415       .  A
C452        C453   1.413       .  A
C452        H457   1.083       .  S
C453        C454   1.412       .  A
C453        O458   1.373       .  S
C454        C455   1.400       .  A
C455        C456   1.395       .  A
C455        H459   1.085       .  S
C456        O460   1.372       .  S
O458        H462   0.989       .  S
O460        H461   0.992       .  S
C463        C464   1.394       .  A
C463        C468   1.421       .  A
C464        C465   1.400       .  A
C464        H469   1.083       .  S
C465        C466   1.417       .  A
C465        O470   1.373       .  S
C466        C467   1.391       .  A
C467        C468   1.395       .  A
C467        H471   1.084       .  S
C468        O472   1.372       .  S
O470        H474   0.992       .  S
O472        H473   0.991       .  S
C475        C476   1.388       .  A
C475        C480   1.413       .  A
C476        C477   1.394       .  A
C476        H481   1.084       .  S
C477        C478   1.424       .  A
C477        O482   1.372       .  S
C478        C479   1.398       .  A
C479        C480   1.402       .  A
C479        H483   1.083       .  S
C480        O484   1.373       .  S
O482        H486   0.992       .  S
O484        H485   0.992       .  S
C487        C488   1.407       .  A
C487        C492   1.409       .  A
C488        C489   1.389       .  A
C488        H493   1.084       .  S
C489        C490   1.398       .  A
C489        O494   1.371       .  S
C490        C491   1.409       .  A
C491        C492   1.409       .  A
C491        H495   1.084       .  S
C492        O496   1.371       .  S
O494        H498   0.992       .  S
O496        H497   0.992       .  S
C499        C500   1.394       .  A
C499        C504   1.418       .  A
C500        C501   1.400       .  A
C500        H505   1.084       .  S
C501        C502   1.418       .  A
C501        O506   1.373       .  S
C502        C503   1.394       .  A
C503        C504   1.400       .  A
C503        H507   1.084       .  S
C504        O508   1.373       .  S
O506        H510   0.992       .  S
O508        H509   0.992       .  S
C511        C512   1.408       .  A
C511        C516   1.415       .  A
C512        C513   1.410       .  A
C512        H517   1.079       .  S
C513        C514   1.407       .  A
C513        O518   1.369       .  S
C514        C515   1.401       .  A
C515        C516   1.397       .  A
C515        H519   1.085       .  S
C516        O520   1.372       .  S
O518        H522   0.992       .  S
O520        H521   0.992       .  S
C523        C524   1.411       .  A
C523        C528   1.414       .  A
C524        C525   1.414       .  A
C524        H529   1.083       .  S
C525        C526   1.411       .  A
C525        O530   1.371       .  S
C526        C527   1.401       .  A
C527        C528   1.395       .  A
C527        H531   1.084       .  S
C528        O532   1.371       .  S
O530        H534   0.991       .  S
O532        H533   0.991       .  S
C535        C536   1.401       .  A
C535        C540   1.408       .  A
C536        C537   1.401       .  A
C536        H541   1.084       .  S
C537        C538   1.416       .  A
C537        O542   1.372       .  S
C538        C539   1.402       .  A
C539        C540   1.402       .  A
C539        H543   1.077       .  S
C540        O544   1.370       .  S
O542        H546   0.992       .  S
O544        H545   0.992       .  S
C547        C548   1.394       .  A
C547        C552   1.413       .  A
C548        C549   1.398       .  A
C548        H553   1.084       .  S
C549        C550   1.416       .  A
C549        O554   1.372       .  S
C550        C551   1.400       .  A
C551        C552   1.406       .  A
C551        H555   1.083       .  S
C552        O556   1.371       .  S
O554        H558   0.992       .  S
O556        H557   0.992       .  S
N559        N560   1.329       .  A
N559        N565   1.321       .  A
N560        C567   1.358       .  A
N561        N563   1.320       .  A
N561        N562   1.306       .  A
N562        C568   1.334       .  A
N563        N564   1.331       .  A
N563       Mn588   2.242   1_556  S
N564        C568   1.363       .  A
N565        N566   1.311       .  A
N565       Mn577   2.168       .  S
N566        C567   1.338       .  A
C567       C1060   1.475       .  S
C568       C1036   1.481       .  S
N569        N575   1.311       .  A
N569        N570   1.327       .  A
N570        C578   1.357       .  A
N571        N572   1.319       .  A
N571        N573   1.312       .  A
N571       Mn577   2.176       .  S
N572        C579   1.348       .  A
N573        N574   1.324       .  A
N573       Mn599   2.207       .  S
N574        C579   1.352       .  A
N575        N576   1.317       .  A
N576        C578   1.346       .  A
Mn577      Cl601   2.450       .  S
C578       C1096   1.490       .  S
C579       C1105   1.473       .  S
N580        N581   1.330       .  A
N580        N586   1.322       .  A
N580       Mn588   2.239   1_556  S
N581        C589   1.360       .  A
N582        N584   1.320       .  A
N582        N583   1.310       .  A
N583        C590   1.337       .  A
N584        N585   1.329       .  A
N585        C590   1.358       .  A
N586        N587   1.307       .  A
N586       Mn600   2.160   1_556  S
N587        C589   1.335       .  A
C589       C1021   1.473       .  S
C590       C1048   1.461       .  S
N591        N592   1.330       .  A
N591        N597   1.312       .  A
N591       Mn599   2.226       .  S
N592        C602   1.358       .  A
N593        N594   1.316       .  A
N593        N595   1.311       .  A
N593       Mn600   2.165   1_556  S
N594        C603   1.345       .  A
N595        N596   1.330       .  A
N596        C603   1.359       .  A
N597        N598   1.317       .  A
N598        C602   1.347       .  A
Mn599      Cl601   2.593       .  S
C602       C1081   1.497       .  S
C603       C1069   1.494       .  S
N604        N605   1.329       .  A
N604        N610   1.312       .  A
N604       Mn633   2.224       .  S
N605        C612   1.357       .  A
N606        N608   1.311       .  A
N606        N607   1.318       .  A
N607        C613   1.346       .  A
N608        N609   1.327       .  A
N609        C613   1.357       .  A
N610        N611   1.317       .  A
N610       Mn622   2.177       .  S
N611        C612   1.348       .  A
C612       C1009   1.496       .  S
C613        C997   1.495       .  S
N614        N620   1.319       .  A
N614        N615   1.331       .  A
N615        C623   1.363       .  A
N616        N617   1.311       .  A
N616        N618   1.322       .  A
N616       Mn622   2.167       .  S
N617        C624   1.338       .  A
N618        N619   1.329       .  A
N618       Mn644   2.239       .  S
N619        C624   1.359       .  A
N620        N621   1.306       .  A
N621        C623   1.335       .  A
Mn622      Cl646   2.465       .  S
C623        C964   1.467       .  S
C624        C940   1.468       .  S
N625        N626   1.327       .  A
N625        N631   1.311       .  A
N626        C634   1.356       .  A
N627        N629   1.312       .  A
N627        N628   1.320       .  A
N627       Mn645   2.181       .  S
N628        C635   1.349       .  A
N629        N630   1.323       .  A
N629       Mn633   2.204       .  S
N630        C635   1.352       .  A
N631        N632   1.318       .  A
N632        C634   1.347       .  A
Mn633      Cl646   2.596       .  S
C634        C973   1.489       .  S
C635        C985   1.479       .  S
N636        N637   1.329       .  A
N636        N642   1.322       .  A
N636       Mn644   2.236       .  S
N637        C647   1.359       .  A
N638        N639   1.307       .  A
N638        N640   1.319       .  A
N639        C648   1.336       .  A
N640        N641   1.332       .  A
N641        C648   1.363       .  A
N642        N643   1.311       .  A
N642       Mn645   2.170       .  S
N643        C647   1.338       .  A
Mn644      Cl646   2.599       .  S
Mn645      Cl646   2.457       .  S
C647        C928   1.475       .  S
C648        C949   1.474       .  S
N649        N650   1.329       .  A
N649        N655   1.322       .  A
N649       Mn678   2.234       .  S
N650        C657   1.359       .  A
N651        N653   1.322       .  A
N651        N652   1.308       .  A
N651       Mn667   2.164       .  S
N652        C658   1.337       .  A
N653        N654   1.332       .  A
N653       Mn678   2.251       .  S
N654        C658   1.363       .  A
N655        N656   1.310       .  A
N655       Mn667   2.169       .  S
N656        C657   1.338       .  A
C657       C1057   1.474       .  S
C658        C937   1.483       .  S
N659        N665   1.312       .  A
N659        N660   1.326       .  A
N659      Mn1805   2.220       .  S
N660        C668   1.356       .  A
N661        N662   1.321       .  A
N661        N663   1.313       .  A
N661       Mn667   2.182       .  S
N662        C669   1.348       .  A
N663        N664   1.326       .  A
N663      Mn1805   2.225       .  S
N664        C669   1.357       .  A
N665        N666   1.321       .  A
N665       Mn667   2.181       .  S
N666        C668   1.348       .  A
Mn667     Cl1807   2.471       .  S
C668        C901   1.485       .  S
C669        C916   1.484       .  S
N670        N671   1.330       .  A
N670        N676   1.321       .  A
N670      Mn1794   2.235       .  S
N671        C679   1.360       .  A
N672        N674   1.319       .  A
N672        N673   1.305       .  A
N672       Mn690   2.150       .  S
N673        C680   1.335       .  A
N674        N675   1.333       .  A
N674      Mn1794   2.249       .  S
N675        C680   1.365       .  A
N676        N677   1.310       .  A
N676       Mn690   2.170       .  S
N677        C679   1.338       .  A
Mn678      N1786   2.235   1_545  S
Mn678      N1790   2.249   1_545  S
Mn678     Cl1807   2.611       .  S
C679        C925   1.477       .  S
C680       C1045   1.476       .  S
N681        N682   1.324       .  A
N681        N687   1.310       .  A
N681       Mn689   2.211       .  S
N682        C692   1.358       .  A
N683        N684   1.319       .  A
N683        N685   1.312       .  A
N683       Mn690   2.176       .  S
N684        C693   1.348       .  A
N685        N686   1.324       .  A
N685       Mn689   2.213       .  S
N686        C693   1.356       .  A
N687        N688   1.321       .  A
N687       Mn690   2.184       .  S
N688        C692   1.350       .  A
Mn689      N1775   2.220       .  S
Mn689      N1779   2.225       .  S
Mn689      Cl691   2.577       .  S
Mn690      Cl691   2.460       .  S
Cl691     Mn1783   2.471       .  S
Cl691     Mn1794   2.611       .  S
C692        C892   1.493       .  S
C693        C877   1.483       .  S
N694        N695   1.324       .  A
N694        N700   1.312       .  A
N694       Mn723   2.220       .  S
N695        C702   1.358       .  A
N696        N698   1.310       .  A
N696        N697   1.320       .  A
N696       Mn712   2.179       .  S
N697        C703   1.349       .  A
N698        N699   1.323       .  A
N698       Mn723   2.204       .  S
N699        C703   1.357       .  A
N700        N701   1.321       .  A
N700       Mn712   2.187       .  S
N701        C702   1.351       .  A
C702        C868   1.493       .  S
C703        C853   1.487       .  S
N704        N710   1.320       .  A
N704        N705   1.329       .  A
N704       Mn734   2.237       .  S
N705        C713   1.360       .  A
N706        N707   1.311       .  A
N706        N708   1.322       .  A
N706       Mn712   2.165       .  S
N707        C714   1.338       .  A
N708        N709   1.327       .  A
N708       Mn734   2.228       .  S
N709        C714   1.356       .  A
N710        N711   1.308       .  A
N710       Mn712   2.160       .  S
N711        C713   1.337       .  A
Mn712      Cl736   2.478       .  S
C713        C961   1.462       .  S
C714       C1033   1.463       .  S
N715        N716   1.329       .  A
N715        N721   1.313       .  A
N715      Mn1839   2.232       .  S
N716        C724   1.359       .  A
N717        N719   1.313       .  A
N717        N718   1.322       .  A
N717       Mn735   2.179       .  S
N718        C725   1.348       .  A
N719        N720   1.324       .  A
N719      Mn1839   2.223       .  S
N720        C725   1.356       .  A
N721        N722   1.320       .  A
N721       Mn735   2.180       .  S
N722        C724   1.346       .  A
Mn723      N1831   2.231   1_545  S
Mn723      N1835   2.223   1_545  S
Mn723      Cl736   2.578       .  S
C724        C832   1.490       .  S
C725        C844   1.481       .  S
N726        N727   1.328       .  A
N726        N732   1.322       .  A
N726      Mn1850   2.228       .  S
N727        C737   1.357       .  A
N728        N729   1.309       .  A
N728        N730   1.320       .  A
N728       Mn735   2.162       .  S
N729        C738   1.337       .  A
N730        N731   1.329       .  A
N730      Mn1850   2.231       .  S
N731        C738   1.359       .  A
N732        N733   1.310       .  A
N732       Mn735   2.166       .  S
N733        C737   1.337       .  A
Mn734      N1842   2.229   1_545  S
Mn734      N1846   2.231   1_545  S
Mn734      Cl736   2.587       .  S
Mn735     Cl1852   2.482       .  S
Cl736     Mn1851   2.482   1_545  S
C737       C1024   1.469       .  S
C738        C952   1.462       .  S
N739        N740   1.330       .  A
N739        N745   1.320       .  A
N739      Mn3000   2.245       .  S
N740        C747   1.361       .  A
N741        N743   1.320       .  A
N741        N742   1.311       .  A
N741      Mn2989   2.189       .  S
N742        C748   1.342       .  A
N743        N744   1.332       .  A
N743       Mn768   2.237       .  S
N744        C748   1.362       .  A
N745        N746   1.311       .  A
N745       Mn757   2.173   1_455  S
N746        C747   1.339       .  A
C747       C1108   1.476       .  S
C748       C1012   1.479       .  S
N749        N755   1.312       .  A
N749        N750   1.322       .  A
N749      Mn3011   2.212       .  S
N750        C758   1.356       .  A
N751        N752   1.322       .  A
N751        N753   1.313       .  A
N751       Mn757   2.199   1_455  S
N752        C759   1.351       .  A
N753        N754   1.324       .  A
N753       Mn779   2.207   1_455  S
N754        C759   1.354       .  A
N755        N756   1.323       .  A
N755      Mn2989   2.192       .  S
N756        C758   1.351       .  A
Mn757      N2973   2.189       .  S
Mn757      N2987   2.192       .  S
Mn757      Cl781   2.463       .  S
C758        C904   1.488       .  S
C759        C913   1.485       .  S
N760        N761   1.332       .  A
N760        N766   1.319       .  A
N760       Mn768   2.252       .  S
N761        C769   1.364       .  A
N762        N764   1.320       .  A
N762        N763   1.313       .  A
N762       Mn780   2.182   1_455  S
N763        C770   1.342       .  A
N764        N765   1.328       .  A
N764      Mn3000   2.240       .  S
N765        C770   1.361       .  A
N766        N767   1.312       .  A
N766      Mn3012   2.177       .  S
N767        C769   1.341       .  A
Mn768      N2971   2.245       .  S
Mn768      N2996   2.240       .  S
Mn768     Cl3013   2.615       .  S
C769       C1000   1.481       .  S
C770       C1093   1.473       .  S
N771        N772   1.322       .  A
N771        N777   1.312       .  A
N771       Mn779   2.205   1_455  S
N772        C782   1.354       .  A
N773        N774   1.323       .  A
N773        N775   1.314       .  A
N773      Mn3012   2.195       .  S
N774        C783   1.352       .  A
N775        N776   1.321       .  A
N775      Mn3011   2.211       .  S
N776        C783   1.355       .  A
N777        N778   1.322       .  A
N777       Mn780   2.196   1_455  S
N778        C782   1.353       .  A
Mn779      N2981   2.212       .  S
Mn779      N3007   2.211       .  S
Mn779      Cl781   2.591       .  S
Mn780      N2998   2.177       .  S
Mn780      N3005   2.195       .  S
Mn780      Cl781   2.477       .  S
Cl781     Mn3000   2.615   1_655  S
C782        C865   1.492       .  S
C783        C856   1.495       .  S
N784        N785   1.323       .  A
N784        N790   1.314       .  A
N784      Mn3045   2.211   1_455  S
N785        C792   1.354       .  A
N786        N788   1.313       .  A
N786        N787   1.322       .  A
N786       Mn802   2.187       .  S
N787        C793   1.350       .  A
N788        N789   1.321       .  A
N788       Mn813   2.206       .  S
N789        C793   1.355       .  A
N790        N791   1.322       .  A
N790      Mn3034   2.196   1_455  S
N791        C792   1.351       .  A
C792        C889   1.491       .  S
C793        C880   1.487       .  S
N794        N800   1.320       .  A
N794        N795   1.328       .  A
N794       Mn824   2.240       .  S
N795        C803   1.361       .  A
N796        N797   1.311       .  A
N796        N798   1.319       .  A
N796      Mn3034   2.181   1_455  S
N797        C804   1.342       .  A
N798        N799   1.334       .  A
N798      Mn3056   2.249       .  S
N799        C804   1.364       .  A
N800        N801   1.313       .  A
N800       Mn802   2.182       .  S
N801        C803   1.342       .  A
Mn802      N3022   2.196       .  S
Mn802      N3028   2.181       .  S
Mn802      Cl826   2.476       .  S
C803        C988   1.471       .  S
C804       C1084   1.486       .  S
N805        N806   1.324       .  A
N805        N811   1.312       .  A
N805       Mn813   2.218       .  S
N806        C814   1.357       .  A
N807        N809   1.312       .  A
N807        N808   1.322       .  A
N807      Mn3057   2.198       .  S
N808        C815   1.351       .  A
N809        N810   1.324       .  A
N809      Mn3045   2.205   1_455  S
N810        C815   1.353       .  A
N811        N812   1.323       .  A
N811       Mn825   2.198       .  S
N812        C814   1.352       .  A
Mn813      N3016   2.211       .  S
Mn813      N3041   2.205       .  S
Mn813      Cl826   2.588       .  S
C814        C829   1.489       .  S
C815        C841   1.479       .  S
N816        N817   1.332       .  A
N816        N822   1.319       .  A
N816      Mn3056   2.245       .  S
N817        C827   1.364       .  A
N818        N819   1.312       .  A
N818        N820   1.319       .  A
N818       Mn825   2.174       .  S
N819        C828   1.340       .  A
N820        N821   1.329       .  A
N820       Mn824   2.243       .  S
N821        C828   1.361       .  A
N822        N823   1.309       .  A
N822      Mn3057   2.176       .  S
N823        C827   1.341       .  A
Mn824      N3030   2.249       .  S
Mn824      N3048   2.245       .  S
Mn824      Cl826   2.616       .  S
Mn825      N3039   2.198       .  S
Mn825      N3054   2.176       .  S
Mn825      Cl826   2.468       .  S
C827       C1072   1.478       .  S
C828        C976   1.472       .  S
C829        C830   1.406       .  A
C829        C834   1.407       .  A
C830        C831   1.406       .  A
C830        H835   1.084       .  S
C831        C832   1.411       .  A
C831        O836   1.371       .  S
C832        C833   1.405       .  A
C833        C834   1.408       .  A
C833        H837   1.081       .  S
C834        O838   1.369       .  S
O836        H840   0.992       .  S
O838       H1955   0.992       .  S
H839       O1954   0.992   1_545  S
C841        C842   1.401       .  A
C841        C846   1.411       .  A
C842        C843   1.404       .  A
C842        H847   1.084       .  S
C843        C844   1.412       .  A
C843        O848   1.371       .  S
C844        C845   1.401       .  A
C845        C846   1.404       .  A
C845        H849   1.083       .  S
C846        O850   1.372       .  S
O848        H852   0.987       .  S
O850        H851   0.992       .  S
C853        C854   1.399       .  A
C853        C858   1.416       .  A
C854        C855   1.396       .  A
C854        H859   1.084       .  S
C855        C856   1.411       .  A
C855        O860   1.361       .  S
C856        C857   1.405       .  A
C857        C858   1.406       .  A
C857        H861   1.083       .  S
C858        O862   1.370       .  S
O860        H864   0.985       .  S
O862        H863   0.992       .  S
C865        C866   1.405       .  A
C865        C870   1.412       .  A
C866        C867   1.405       .  A
C866        H871   1.083       .  S
C867        C868   1.415       .  A
C867        O872   1.371       .  S
C868        C869   1.402       .  A
C869        C870   1.401       .  A
C869        H873   1.079       .  S
C870        O874   1.369       .  S
O872        H876   0.992       .  S
O874        H875   0.991       .  S
C877        C878   1.399       .  A
C877        C882   1.416       .  A
C878        C879   1.398       .  A
C878        H883   1.084       .  S
C879        C880   1.408       .  A
C879        O884   1.362       .  S
C880        C881   1.402       .  A
C881        C882   1.405       .  A
C881        H885   1.083       .  S
C882        O886   1.372       .  S
O884        H888   0.988       .  S
O886        H887   0.992       .  S
C889        C890   1.404       .  A
C889        C894   1.411       .  A
C890        C891   1.402       .  A
C890        H895   1.080       .  S
C891        C892   1.408       .  A
C891        O896   1.367       .  S
C892        C893   1.408       .  A
C893        C894   1.405       .  A
C893        H897   1.083       .  S
C894        O898   1.371       .  S
O896        H900   0.988       .  S
O898        H899   0.992       .  S
C901        C902   1.405       .  A
C901        C906   1.410       .  A
C902        C903   1.405       .  A
C902        H907   1.082       .  S
C903        C904   1.408       .  A
C903        O908   1.368       .  S
C904        C905   1.405       .  A
C905        C906   1.405       .  A
C905        H909   1.084       .  S
C906        O910   1.371       .  S
O908       H2028   0.990       .  S
O910        H911   0.992       .  S
H912       O2024   0.990       .  S
C913        C914   1.402       .  A
C913        C918   1.413       .  A
C914        C915   1.404       .  A
C914        H919   1.084       .  S
C915        C916   1.407       .  A
C915        O920   1.367       .  S
C916        C917   1.402       .  A
C917        C918   1.406       .  A
C917        H921   1.083       .  S
C918        O922   1.372       .  S
O920       H2040   0.992       .  S
O922        H923   0.992       .  S
H924       O2036   0.992       .  S
C925        C926   1.395       .  A
C925        C930   1.419       .  A
C926        C927   1.401       .  A
C926        H931   1.083       .  S
C927        C928   1.418       .  A
C927        O932   1.373       .  S
C928        C929   1.394       .  A
C929        C930   1.398       .  A
C929        H933   1.084       .  S
C930        O934   1.372       .  S
O932        H936   0.992       .  S
O934        H935   0.992       .  S
C937        C938   1.415       .  A
C937        C942   1.403       .  A
C938        C939   1.396       .  A
C938        H943   1.083       .  S
C939        C940   1.395       .  A
C939        O944   1.371       .  S
C940        C941   1.411       .  A
C941        C942   1.404       .  A
C941        H945   1.084       .  S
C942        O946   1.371       .  S
O944        H948   0.992       .  S
O946        H947   0.992       .  S
C949        C950   1.403       .  A
C949        C954   1.409       .  A
C950        C951   1.389       .  A
C950        H955   1.079       .  S
C951        C952   1.400       .  A
C951        O956   1.372       .  S
C952        C953   1.408       .  A
C953        C954   1.410       .  A
C953        H957   1.084       .  S
C954        O958   1.371       .  S
O956        H960   0.992       .  S
O958        H959   0.992       .  S
C961        C962   1.406       .  A
C961        C966   1.402       .  A
C962        C963   1.407       .  A
C962        H967   1.084       .  S
C963        C964   1.409       .  A
C963        O968   1.371       .  S
C964        C965   1.403       .  A
C965        C966   1.390       .  A
C965        H969   1.085       .  S
C966        O970   1.371       .  S
O968        H972   0.992       .  S
O970        H971   0.992       .  S
C973        C974   1.401       .  A
C973        C978   1.416       .  A
C974        C975   1.404       .  A
C974        H979   1.083       .  S
C975        C976   1.409       .  A
C975        O980   1.368       .  S
C976        C977   1.398       .  A
C977        C978   1.401       .  A
C977        H981   1.084       .  S
C978        O982   1.369       .  S
O980        H984   0.992       .  S
O982        H983   0.991       .  S
C985        C986   1.399       .  A
C985        C990   1.414       .  A
C986        C987   1.399       .  A
C986        H991   1.084       .  S
C987        C988   1.408       .  A
C987        O992   1.369       .  S
C988        C989   1.400       .  A
C989        C990   1.404       .  A
C989        H993   1.083       .  S
C990        O994   1.371       .  S
O992        H996   0.992       .  S
O994        H995   0.992       .  S
C997        C998   1.407       .  A
C997       C1002   1.413       .  A
C998        C999   1.400       .  A
C998       H1003   1.083       .  S
C999       C1000   1.408       .  A
C999       O1004   1.373       .  S
C1000      C1001   1.404       .  A
C1001      C1002   1.408       .  A
C1001      H1005   1.081       .  S
C1002      O1006   1.368       .  S
O1004      H1008   0.992       .  S
O1006      H1007   0.990       .  S
C1009      C1010   1.411       .  A
C1009      C1014   1.415       .  A
C1010      C1011   1.413       .  A
C1010      H1015   1.083       .  S
C1011      C1012   1.412       .  A
C1011      O1016   1.373       .  S
C1012      C1013   1.400       .  A
C1013      C1014   1.395       .  A
C1013      H1017   1.085       .  S
C1014      O1018   1.372       .  S
O1016      H1020   0.989       .  S
O1018      H1019   0.992       .  S
C1021      C1022   1.394       .  A
C1021      C1026   1.421       .  A
C1022      C1023   1.400       .  A
C1022      H1027   1.083       .  S
C1023      C1024   1.417       .  A
C1023      O1028   1.373       .  S
C1024      C1025   1.391       .  A
C1025      C1026   1.395       .  A
C1025      H1029   1.084       .  S
C1026      O1030   1.372       .  S
O1028      H1032   0.992       .  S
O1030      H1031   0.991       .  S
C1033      C1034   1.388       .  A
C1033      C1038   1.413       .  A
C1034      C1035   1.394       .  A
C1034      H1039   1.084       .  S
C1035      C1036   1.424       .  A
C1035      O1040   1.372       .  S
C1036      C1037   1.398       .  A
C1037      C1038   1.402       .  A
C1037      H1041   1.083       .  S
C1038      O1042   1.373       .  S
O1040      H1044   0.992       .  S
O1042      H1043   0.992       .  S
C1045      C1046   1.407       .  A
C1045      C1050   1.409       .  A
C1046      C1047   1.389       .  A
C1046      H1051   1.084       .  S
C1047      C1048   1.398       .  A
C1047      O1052   1.371       .  S
C1048      C1049   1.409       .  A
C1049      C1050   1.409       .  A
C1049      H1053   1.084       .  S
C1050      O1054   1.371       .  S
O1052      H1056   0.992       .  S
O1054      H1055   0.992       .  S
C1057      C1058   1.394       .  A
C1057      C1062   1.418       .  A
C1058      C1059   1.400       .  A
C1058      H1063   1.084       .  S
C1059      C1060   1.418       .  A
C1059      O1064   1.373       .  S
C1060      C1061   1.394       .  A
C1061      C1062   1.400       .  A
C1061      H1065   1.084       .  S
C1062      O1066   1.373       .  S
O1064      H1068   0.992       .  S
O1066      H1067   0.992       .  S
C1069      C1070   1.408       .  A
C1069      C1074   1.415       .  A
C1070      C1071   1.410       .  A
C1070      H1075   1.079       .  S
C1071      C1072   1.407       .  A
C1071      O1076   1.369       .  S
C1072      C1073   1.401       .  A
C1073      C1074   1.397       .  A
C1073      H1077   1.085       .  S
C1074      O1078   1.372       .  S
O1076      H1080   0.992       .  S
O1078      H1079   0.992       .  S
C1081      C1082   1.411       .  A
C1081      C1086   1.414       .  A
C1082      C1083   1.414       .  A
C1082      H1087   1.083       .  S
C1083      C1084   1.411       .  A
C1083      O1088   1.371       .  S
C1084      C1085   1.401       .  A
C1085      C1086   1.395       .  A
C1085      H1089   1.084       .  S
C1086      O1090   1.371       .  S
O1088      H1092   0.991       .  S
O1090      H1091   0.991       .  S
C1093      C1094   1.401       .  A
C1093      C1098   1.408       .  A
C1094      C1095   1.401       .  A
C1094      H1099   1.084       .  S
C1095      C1096   1.416       .  A
C1095      O1100   1.372       .  S
C1096      C1097   1.402       .  A
C1097      C1098   1.402       .  A
C1097      H1101   1.077       .  S
C1098      O1102   1.370       .  S
O1100      H1104   0.992       .  S
O1102      H1103   0.992       .  S
C1105      C1106   1.394       .  A
C1105      C1110   1.413       .  A
C1106      C1107   1.398       .  A
C1106      H1111   1.084       .  S
C1107      C1108   1.416       .  A
C1107      O1112   1.372       .  S
C1108      C1109   1.400       .  A
C1109      C1110   1.406       .  A
C1109      H1113   1.083       .  S
C1110      O1114   1.371       .  S
O1112      H1116   0.992       .  S
O1114      H1115   0.992       .  S
N1117      N1118   1.329       .  A
N1117      N1123   1.321       .  A
N1117     Mn1704   2.231       .  S
N1118      C1125   1.358       .  A
N1119      N1121   1.320       .  A
N1119      N1120   1.306       .  A
N1119     Mn1693   2.157       .  S
N1120      C1126   1.334       .  A
N1121      N1122   1.331       .  A
N1121     Mn1146   2.242       .  S
N1122      C1126   1.363       .  A
N1123      N1124   1.311       .  A
N1123     Mn1135   2.168       .  S
N1124      C1125   1.338       .  A
C1125      C1618   1.475       .  S
C1126      C1594   1.481       .  S
N1127      N1133   1.311       .  A
N1127      N1128   1.327       .  A
N1127     Mn1715   2.208       .  S
N1128      C1136   1.357       .  A
N1129      N1130   1.319       .  A
N1129      N1131   1.312       .  A
N1129     Mn1135   2.176       .  S
N1130      C1137   1.348       .  A
N1131      N1132   1.324       .  A
N1131     Mn1157   2.207       .  S
N1132      C1137   1.352       .  A
N1133      N1134   1.317       .  A
N1133     Mn1693   2.176       .  S
N1134      C1136   1.346       .  A
Mn1135     N1677   2.157   1_554  S
Mn1135     N1691   2.176   1_554  S
Mn1135    Cl1159   2.450       .  S
C1136      C1654   1.490       .  S
C1137      C1663   1.473       .  S
N1138      N1139   1.330       .  A
N1138      N1144   1.322       .  A
N1138     Mn1146   2.239       .  S
N1139      C1147   1.360       .  A
N1140      N1142   1.320       .  A
N1140      N1141   1.310       .  A
N1140     Mn1716   2.166       .  S
N1141      C1148   1.337       .  A
N1142      N1143   1.329       .  A
N1142     Mn1704   2.230       .  S
N1143      C1148   1.358       .  A
N1144      N1145   1.307       .  A
N1144     Mn1158   2.160       .  S
N1145      C1147   1.335       .  A
Mn1146     N1675   2.231       .  S
Mn1146     N1700   2.230       .  S
Mn1146    Cl1717   2.597       .  S
C1147      C1579   1.473       .  S
C1148      C1606   1.461       .  S
N1149      N1150   1.330       .  A
N1149      N1155   1.312       .  A
N1149     Mn1157   2.226       .  S
N1150      C1160   1.358       .  A
N1151      N1152   1.316       .  A
N1151      N1153   1.311       .  A
N1151     Mn1158   2.165       .  S
N1152      C1161   1.345       .  A
N1153      N1154   1.330       .  A
N1153     Mn1715   2.222       .  S
N1154      C1161   1.359       .  A
N1155      N1156   1.317       .  A
N1155     Mn1716   2.173       .  S
N1156      C1160   1.347       .  A
Mn1157     N1685   2.208   1_554  S
Mn1157     N1711   2.222   1_554  S
Mn1157    Cl1159   2.593       .  S
Mn1158     N1698   2.166       .  S
Mn1158     N1713   2.173       .  S
Mn1158    Cl1717   2.457       .  S
Cl1159    Mn1704   2.597       .  S
Cl1159    Mn1716   2.457       .  S
C1160      C1639   1.497       .  S
C1161      C1627   1.494       .  S
N1162      N1163   1.329       .  A
N1162      N1168   1.312       .  A
N1162     Mn1191   2.224       .  S
N1163      C1170   1.357       .  A
N1164      N1166   1.311       .  A
N1164      N1165   1.318       .  A
N1164     Mn1738   2.170       .  S
N1165      C1171   1.346       .  A
N1166      N1167   1.327       .  A
N1166     Mn1749   2.216       .  S
N1167      C1171   1.357       .  A
N1168      N1169   1.317       .  A
N1168     Mn1180   2.177       .  S
N1169      C1170   1.348       .  A
C1170      C1567   1.496       .  S
C1171      C1555   1.495       .  S
N1172      N1178   1.319       .  A
N1172      N1173   1.331       .  A
N1172     Mn1760   2.245       .  S
N1173      C1181   1.363       .  A
N1174      N1175   1.311       .  A
N1174      N1176   1.322       .  A
N1174     Mn1180   2.167       .  S
N1175      C1182   1.338       .  A
N1176      N1177   1.329       .  A
N1176     Mn1202   2.239       .  S
N1177      C1182   1.359       .  A
N1178      N1179   1.306       .  A
N1178     Mn1738   2.152       .  S
N1179      C1181   1.335       .  A
Mn1180     N1722   2.170   1_554  S
Mn1180     N1736   2.152   1_554  S
Mn1180    Cl1204   2.465       .  S
C1181      C1522   1.467       .  S
C1182      C1498   1.468       .  S
N1183      N1184   1.327       .  A
N1183      N1189   1.311       .  A
N1183     Mn1749   2.208       .  S
N1184      C1192   1.356       .  A
N1185      N1187   1.312       .  A
N1185      N1186   1.320       .  A
N1185     Mn1203   2.181       .  S
N1186      C1193   1.349       .  A
N1187      N1188   1.323       .  A
N1187     Mn1191   2.204       .  S
N1188      C1193   1.352       .  A
N1189      N1190   1.318       .  A
N1189     Mn1761   2.182       .  S
N1190      C1192   1.347       .  A
Mn1191     N1724   2.216   1_554  S
Mn1191     N1741   2.208   1_554  S
Mn1191    Cl1204   2.596       .  S
C1192      C1531   1.489       .  S
C1193      C1543   1.479       .  S
N1194      N1195   1.329       .  A
N1194      N1200   1.322       .  A
N1194     Mn1202   2.236       .  S
N1195      C1205   1.359       .  A
N1196      N1197   1.307       .  A
N1196      N1198   1.319       .  A
N1196     Mn1761   2.159       .  S
N1197      C1206   1.336       .  A
N1198      N1199   1.332       .  A
N1198     Mn1760   2.246       .  S
N1199      C1206   1.363       .  A
N1200      N1201   1.311       .  A
N1200     Mn1203   2.170       .  S
N1201      C1205   1.338       .  A
Mn1202     N1730   2.245   1_554  S
Mn1202     N1756   2.246   1_554  S
Mn1202    Cl1204   2.599       .  S
Mn1203     N1747   2.182   1_554  S
Mn1203     N1754   2.159   1_554  S
Mn1203    Cl1204   2.457       .  S
C1205      C1486   1.475       .  S
C1206      C1507   1.474       .  S
N1207      N1208   1.329       .  A
N1207      N1213   1.322       .  A
N1207     Mn1236   2.234       .  S
N1208      C1215   1.359       .  A
N1209      N1211   1.322       .  A
N1209      N1210   1.308       .  A
N1209     Mn1225   2.164       .  S
N1210      C1216   1.337       .  A
N1211      N1212   1.332       .  A
N1211     Mn1236   2.251       .  S
N1212      C1216   1.363       .  A
N1213      N1214   1.310       .  A
N1213     Mn1225   2.169       .  S
N1214      C1215   1.338       .  A
C1215      C1615   1.474       .  S
C1216      C1495   1.483       .  S
N1217      N1223   1.312       .  A
N1217      N1218   1.326       .  A
N1218      C1226   1.356       .  A
N1219      N1220   1.321       .  A
N1219      N1221   1.313       .  A
N1219     Mn1225   2.182       .  S
N1220      C1227   1.348       .  A
N1221      N1222   1.326       .  A
N1222      C1227   1.357       .  A
N1223      N1224   1.321       .  A
N1223     Mn1225   2.181       .  S
N1224      C1226   1.348       .  A
C1226      C1459   1.485       .  S
C1227      C1474   1.484       .  S
N1228      N1229   1.330       .  A
N1228      N1234   1.321       .  A
N1229      C1237   1.360       .  A
N1230      N1232   1.319       .  A
N1230      N1231   1.305       .  A
N1230     Mn1248   2.150       .  S
N1231      C1238   1.335       .  A
N1232      N1233   1.333       .  A
N1233      C1238   1.365       .  A
N1234      N1235   1.310       .  A
N1234     Mn1248   2.170       .  S
N1235      C1237   1.338       .  A
C1237      C1483   1.477       .  S
C1238      C1603   1.476       .  S
N1239      N1240   1.324       .  A
N1239      N1245   1.310       .  A
N1239     Mn1247   2.211   1_565  S
N1240      C1250   1.358       .  A
N1241      N1242   1.319       .  A
N1241      N1243   1.312       .  A
N1241     Mn1248   2.176       .  S
N1242      C1251   1.348       .  A
N1243      N1244   1.324       .  A
N1243     Mn1247   2.213   1_565  S
N1244      C1251   1.356       .  A
N1245      N1246   1.321       .  A
N1245     Mn1248   2.184       .  S
N1246      C1250   1.350       .  A
Mn1247    Cl1249   2.578       .  S
Mn1248    Cl1249   2.459   1_565  S
C1250      C1450   1.493       .  S
C1251      C1435   1.483       .  S
N1252      N1253   1.324       .  A
N1252      N1258   1.313       .  A
N1252     Mn1281   2.220       .  S
N1253      C1260   1.358       .  A
N1254      N1256   1.311       .  A
N1254      N1255   1.320       .  A
N1254     Mn1270   2.179       .  S
N1255      C1261   1.349       .  A
N1256      N1257   1.323       .  A
N1256     Mn1281   2.205       .  S
N1257      C1261   1.357       .  A
N1258      N1259   1.321       .  A
N1258     Mn1270   2.188       .  S
N1259      C1260   1.351       .  A
C1260      C1426   1.493       .  S
C1261      C1411   1.487       .  S
N1262      N1268   1.319       .  A
N1262      N1263   1.329       .  A
N1262     Mn1292   2.236       .  S
N1263      C1271   1.360       .  A
N1264      N1265   1.311       .  A
N1264      N1266   1.321       .  A
N1264     Mn1270   2.164       .  S
N1265      C1272   1.338       .  A
N1266      N1267   1.327       .  A
N1266     Mn1292   2.226       .  S
N1267      C1272   1.356       .  A
N1268      N1269   1.308       .  A
N1268     Mn1270   2.159       .  S
N1269      C1271   1.337       .  A
Mn1270    Cl1294   2.477       .  S
C1271      C1519   1.462       .  S
C1272      C1591   1.463       .  S
N1273      N1274   1.329       .  A
N1273      N1279   1.313       .  A
N1274      C1282   1.359       .  A
N1275      N1277   1.313       .  A
N1275      N1276   1.322       .  A
N1275     Mn1293   2.178       .  S
N1276      C1283   1.348       .  A
N1277      N1278   1.324       .  A
N1278      C1283   1.356       .  A
N1279      N1280   1.320       .  A
N1279     Mn1293   2.179       .  S
N1280      C1282   1.346       .  A
Mn1281    Cl1294   2.569       .  S
C1282      C1390   1.490       .  S
C1283      C1402   1.481       .  S
N1284      N1285   1.328       .  A
N1284      N1290   1.322       .  A
N1285      C1295   1.357       .  A
N1286      N1287   1.309       .  A
N1286      N1288   1.320       .  A
N1286     Mn1293   2.163       .  S
N1287      C1296   1.337       .  A
N1288      N1289   1.329       .  A
N1289      C1296   1.359       .  A
N1290      N1291   1.310       .  A
N1290     Mn1293   2.167       .  S
N1291      C1295   1.337       .  A
Mn1292    Cl1294   2.597       .  S
C1295      C1582   1.469       .  S
C1296      C1510   1.462       .  S
N1297      N1298   1.330       .  A
N1297      N1303   1.320       .  A
N1297     Mn3558   2.245       .  S
N1298      C1305   1.361       .  A
N1299      N1301   1.320       .  A
N1299      N1300   1.311       .  A
N1299     Mn3547   2.189       .  S
N1300      C1306   1.342       .  A
N1301      N1302   1.332       .  A
N1301     Mn1326   2.237       .  S
N1302      C1306   1.362       .  A
N1303      N1304   1.311       .  A
N1303     Mn1315   2.173   1_455  S
N1304      C1305   1.339       .  A
C1305      C1666   1.476       .  S
C1306      C1570   1.479       .  S
N1307      N1313   1.312       .  A
N1307      N1308   1.322       .  A
N1307     Mn3569   2.212       .  S
N1308      C1316   1.356       .  A
N1309      N1310   1.322       .  A
N1309      N1311   1.313       .  A
N1309     Mn1315   2.199   1_455  S
N1310      C1317   1.351       .  A
N1311      N1312   1.324       .  A
N1311     Mn1337   2.207   1_455  S
N1312      C1317   1.354       .  A
N1313      N1314   1.323       .  A
N1313     Mn3547   2.192       .  S
N1314      C1316   1.351       .  A
Mn1315     N3531   2.189       .  S
Mn1315     N3545   2.192       .  S
Mn1315    Cl1339   2.463       .  S
C1316      C1462   1.488       .  S
C1317      C1471   1.485       .  S
N1318      N1319   1.332       .  A
N1318      N1324   1.319       .  A
N1318     Mn1326   2.252       .  S
N1319      C1327   1.364       .  A
N1320      N1322   1.320       .  A
N1320      N1321   1.313       .  A
N1320     Mn1338   2.182   1_455  S
N1321      C1328   1.342       .  A
N1322      N1323   1.328       .  A
N1322     Mn3558   2.240       .  S
N1323      C1328   1.361       .  A
N1324      N1325   1.312       .  A
N1324     Mn3570   2.177       .  S
N1325      C1327   1.341       .  A
Mn1326     N3529   2.245       .  S
Mn1326     N3554   2.240       .  S
Mn1326    Cl3571   2.615       .  S
C1327      C1558   1.481       .  S
C1328      C1651   1.473       .  S
N1329      N1330   1.322       .  A
N1329      N1335   1.312       .  A
N1329     Mn1337   2.205   1_455  S
N1330      C1340   1.354       .  A
N1331      N1332   1.323       .  A
N1331      N1333   1.314       .  A
N1331     Mn3570   2.195       .  S
N1332      C1341   1.352       .  A
N1333      N1334   1.321       .  A
N1333     Mn3569   2.211       .  S
N1334      C1341   1.355       .  A
N1335      N1336   1.322       .  A
N1335     Mn1338   2.196   1_455  S
N1336      C1340   1.353       .  A
Mn1337     N3539   2.212       .  S
Mn1337     N3565   2.211       .  S
Mn1337    Cl1339   2.591       .  S
Mn1338     N3556   2.177       .  S
Mn1338     N3563   2.195       .  S
Mn1338    Cl1339   2.477       .  S
Cl1339    Mn3558   2.615   1_655  S
C1340      C1423   1.492       .  S
C1341      C1414   1.495       .  S
N1342      N1343   1.323       .  A
N1342      N1348   1.314       .  A
N1342     Mn3603   2.211   1_455  S
N1343      C1350   1.354       .  A
N1344      N1346   1.313       .  A
N1344      N1345   1.322       .  A
N1344     Mn1360   2.187       .  S
N1345      C1351   1.350       .  A
N1346      N1347   1.321       .  A
N1346     Mn1371   2.206       .  S
N1347      C1351   1.355       .  A
N1348      N1349   1.322       .  A
N1348     Mn3592   2.196   1_455  S
N1349      C1350   1.351       .  A
C1350      C1447   1.491       .  S
C1351      C1438   1.487       .  S
N1352      N1358   1.320       .  A
N1352      N1353   1.328       .  A
N1352     Mn1382   2.240       .  S
N1353      C1361   1.361       .  A
N1354      N1355   1.311       .  A
N1354      N1356   1.319       .  A
N1354     Mn3592   2.181   1_455  S
N1355      C1362   1.342       .  A
N1356      N1357   1.334       .  A
N1356     Mn3614   2.249       .  S
N1357      C1362   1.364       .  A
N1358      N1359   1.313       .  A
N1358     Mn1360   2.182       .  S
N1359      C1361   1.342       .  A
Mn1360     N3580   2.195       .  S
Mn1360     N3586   2.181       .  S
Mn1360    Cl1384   2.476       .  S
C1361      C1546   1.471       .  S
C1362      C1642   1.486       .  S
N1363      N1364   1.324       .  A
N1363      N1369   1.312       .  A
N1363     Mn1371   2.218       .  S
N1364      C1372   1.357       .  A
N1365      N1367   1.312       .  A
N1365      N1366   1.322       .  A
N1365     Mn3615   2.198       .  S
N1366      C1373   1.351       .  A
N1367      N1368   1.324       .  A
N1367     Mn3603   2.205   1_455  S
N1368      C1373   1.353       .  A
N1369      N1370   1.323       .  A
N1369     Mn1383   2.198       .  S
N1370      C1372   1.352       .  A
Mn1371     N3574   2.211       .  S
Mn1371     N3599   2.205       .  S
Mn1371    Cl1384   2.588       .  S
C1372      C1387   1.489       .  S
C1373      C1399   1.479       .  S
N1374      N1375   1.332       .  A
N1374      N1380   1.319       .  A
N1374     Mn3614   2.245       .  S
N1375      C1385   1.364       .  A
N1376      N1377   1.312       .  A
N1376      N1378   1.319       .  A
N1376     Mn1383   2.174       .  S
N1377      C1386   1.340       .  A
N1378      N1379   1.329       .  A
N1378     Mn1382   2.243       .  S
N1379      C1386   1.361       .  A
N1380      N1381   1.309       .  A
N1380     Mn3615   2.176       .  S
N1381      C1385   1.341       .  A
Mn1382     N3588   2.249       .  S
Mn1382     N3606   2.245       .  S
Mn1382    Cl1384   2.616       .  S
Mn1383     N3597   2.198       .  S
Mn1383     N3612   2.176       .  S
Mn1383    Cl1384   2.468       .  S
C1385      C1630   1.478       .  S
C1386      C1534   1.472       .  S
C1387      C1388   1.406       .  A
C1387      C1392   1.407       .  A
C1388      C1389   1.406       .  A
C1388      H1393   1.084       .  S
C1389      C1390   1.411       .  A
C1389      O1394   1.371       .  S
C1390      C1391   1.405       .  A
C1391      C1392   1.408       .  A
C1391      H1395   1.081       .  S
C1392      O1396   1.369       .  S
O1394      H1398   0.992       .  S
C1399      C1400   1.401       .  A
C1399      C1404   1.411       .  A
C1400      C1401   1.404       .  A
C1400      H1405   1.084       .  S
C1401      C1402   1.412       .  A
C1401      O1406   1.371       .  S
C1402      C1403   1.401       .  A
C1403      C1404   1.404       .  A
C1403      H1407   1.083       .  S
C1404      O1408   1.372       .  S
O1406      H1410   0.987   1_565  S
O1408      H1409   0.992       .  S
C1411      C1412   1.399       .  A
C1411      C1416   1.416       .  A
C1412      C1413   1.396       .  A
C1412      H1417   1.084       .  S
C1413      C1414   1.411       .  A
C1413      O1418   1.361       .  S
C1414      C1415   1.405       .  A
C1415      C1416   1.406       .  A
C1415      H1419   1.083       .  S
C1416      O1420   1.370       .  S
O1418      H1422   0.985       .  S
O1420      H1421   0.992       .  S
C1423      C1424   1.406       .  A
C1423      C1428   1.412       .  A
C1424      C1425   1.405       .  A
C1424      H1429   1.083       .  S
C1425      C1426   1.415       .  A
C1425      O1430   1.371       .  S
C1426      C1427   1.402       .  A
C1427      C1428   1.401       .  A
C1427      H1431   1.079       .  S
C1428      O1432   1.369       .  S
O1430      H1434   0.992       .  S
O1432      H1433   0.991       .  S
C1435      C1436   1.399       .  A
C1435      C1440   1.416       .  A
C1436      C1437   1.398       .  A
C1436      H1441   1.084       .  S
C1437      C1438   1.408       .  A
C1437      O1442   1.362       .  S
C1438      C1439   1.402       .  A
C1439      C1440   1.405       .  A
C1439      H1443   1.083       .  S
C1440      O1444   1.372       .  S
O1442      H1446   0.988       .  S
O1444      H1445   0.992       .  S
C1447      C1448   1.404       .  A
C1447      C1452   1.411       .  A
C1448      C1449   1.402       .  A
C1448      H1453   1.080       .  S
C1449      C1450   1.408       .  A
C1449      O1454   1.367       .  S
C1450      C1451   1.408       .  A
C1451      C1452   1.406       .  A
C1451      H1455   1.083       .  S
C1452      O1456   1.371       .  S
O1454      H1458   0.988       .  S
O1456      H1457   0.992       .  S
C1459      C1460   1.405       .  A
C1459      C1464   1.410       .  A
C1460      C1461   1.405       .  A
C1460      H1465   1.082       .  S
C1461      C1462   1.408       .  A
C1461      O1466   1.368       .  S
C1462      C1463   1.405       .  A
C1463      C1464   1.405       .  A
C1463      H1467   1.084       .  S
C1464      O1468   1.371       .  S
O1468      H1469   0.992       .  S
C1471      C1472   1.402       .  A
C1471      C1476   1.413       .  A
C1472      C1473   1.404       .  A
C1472      H1477   1.084       .  S
C1473      C1474   1.407       .  A
C1473      O1478   1.367       .  S
C1474      C1475   1.402       .  A
C1475      C1476   1.406       .  A
C1475      H1479   1.083       .  S
C1476      O1480   1.372       .  S
O1480      H1481   0.992       .  S
C1483      C1484   1.395       .  A
C1483      C1488   1.419       .  A
C1484      C1485   1.401       .  A
C1484      H1489   1.083       .  S
C1485      C1486   1.418       .  A
C1485      O1490   1.373       .  S
C1486      C1487   1.394       .  A
C1487      C1488   1.398       .  A
C1487      H1491   1.084       .  S
C1488      O1492   1.372       .  S
O1490      H1494   0.992       .  S
O1492      H1493   0.992       .  S
C1495      C1496   1.415       .  A
C1495      C1500   1.403       .  A
C1496      C1497   1.396       .  A
C1496      H1501   1.083       .  S
C1497      C1498   1.395       .  A
C1497      O1502   1.371       .  S
C1498      C1499   1.411       .  A
C1499      C1500   1.403       .  A
C1499      H1503   1.084       .  S
C1500      O1504   1.371       .  S
O1502      H1506   0.992       .  S
O1504      H1505   0.992       .  S
C1507      C1508   1.403       .  A
C1507      C1512   1.409       .  A
C1508      C1509   1.389       .  A
C1508      H1513   1.079       .  S
C1509      C1510   1.400       .  A
C1509      O1514   1.372       .  S
C1510      C1511   1.408       .  A
C1511      C1512   1.410       .  A
C1511      H1515   1.084       .  S
C1512      O1516   1.371       .  S
O1514      H1518   0.992       .  S
O1516      H1517   0.992       .  S
C1519      C1520   1.406       .  A
C1519      C1524   1.402       .  A
C1520      C1521   1.407       .  A
C1520      H1525   1.084       .  S
C1521      C1522   1.409       .  A
C1521      O1526   1.371       .  S
C1522      C1523   1.403       .  A
C1523      C1524   1.390       .  A
C1523      H1527   1.085       .  S
C1524      O1528   1.371       .  S
O1526      H1530   0.992       .  S
O1528      H1529   0.992       .  S
C1531      C1532   1.401       .  A
C1531      C1536   1.416       .  A
C1532      C1533   1.404       .  A
C1532      H1537   1.083       .  S
C1533      C1534   1.409       .  A
C1533      O1538   1.368       .  S
C1534      C1535   1.398       .  A
C1535      C1536   1.401       .  A
C1535      H1539   1.084       .  S
C1536      O1540   1.369       .  S
O1538      H1542   0.992       .  S
O1540      H1541   0.991       .  S
C1543      C1544   1.399       .  A
C1543      C1548   1.414       .  A
C1544      C1545   1.399       .  A
C1544      H1549   1.084       .  S
C1545      C1546   1.408       .  A
C1545      O1550   1.369       .  S
C1546      C1547   1.400       .  A
C1547      C1548   1.404       .  A
C1547      H1551   1.083       .  S
C1548      O1552   1.371       .  S
O1550      H1554   0.992       .  S
O1552      H1553   0.992       .  S
C1555      C1556   1.406       .  A
C1555      C1560   1.413       .  A
C1556      C1557   1.400       .  A
C1556      H1561   1.083       .  S
C1557      C1558   1.408       .  A
C1557      O1562   1.373       .  S
C1558      C1559   1.404       .  A
C1559      C1560   1.408       .  A
C1559      H1563   1.081       .  S
C1560      O1564   1.368       .  S
O1562      H1566   0.992       .  S
O1564      H1565   0.990       .  S
C1567      C1568   1.411       .  A
C1567      C1572   1.415       .  A
C1568      C1569   1.413       .  A
C1568      H1573   1.083       .  S
C1569      C1570   1.412       .  A
C1569      O1574   1.373       .  S
C1570      C1571   1.400       .  A
C1571      C1572   1.395       .  A
C1571      H1575   1.085       .  S
C1572      O1576   1.372       .  S
O1574      H1578   0.989       .  S
O1576      H1577   0.992       .  S
C1579      C1580   1.394       .  A
C1579      C1584   1.421       .  A
C1580      C1581   1.400       .  A
C1580      H1585   1.083       .  S
C1581      C1582   1.417       .  A
C1581      O1586   1.373       .  S
C1582      C1583   1.391       .  A
C1583      C1584   1.395       .  A
C1583      H1587   1.084       .  S
C1584      O1588   1.372       .  S
O1586      H1590   0.992       .  S
O1588      H1589   0.991       .  S
C1591      C1592   1.388       .  A
C1591      C1596   1.413       .  A
C1592      C1593   1.394       .  A
C1592      H1597   1.084       .  S
C1593      C1594   1.424       .  A
C1593      O1598   1.372       .  S
C1594      C1595   1.398       .  A
C1595      C1596   1.402       .  A
C1595      H1599   1.083       .  S
C1596      O1600   1.373       .  S
O1598      H1602   0.992       .  S
O1600      H1601   0.992       .  S
C1603      C1604   1.407       .  A
C1603      C1608   1.409       .  A
C1604      C1605   1.389       .  A
C1604      H1609   1.084       .  S
C1605      C1606   1.398       .  A
C1605      O1610   1.371       .  S
C1606      C1607   1.409       .  A
C1607      C1608   1.409       .  A
C1607      H1611   1.084       .  S
C1608      O1612   1.371       .  S
O1610      H1614   0.992       .  S
O1612      H1613   0.992       .  S
C1615      C1616   1.394       .  A
C1615      C1620   1.418       .  A
C1616      C1617   1.400       .  A
C1616      H1621   1.084       .  S
C1617      C1618   1.418       .  A
C1617      O1622   1.373       .  S
C1618      C1619   1.394       .  A
C1619      C1620   1.400       .  A
C1619      H1623   1.084       .  S
C1620      O1624   1.373       .  S
O1622      H1626   0.992       .  S
O1624      H1625   0.992       .  S
C1627      C1628   1.408       .  A
C1627      C1632   1.415       .  A
C1628      C1629   1.410       .  A
C1628      H1633   1.079       .  S
C1629      C1630   1.407       .  A
C1629      O1634   1.369       .  S
C1630      C1631   1.401       .  A
C1631      C1632   1.397       .  A
C1631      H1635   1.085       .  S
C1632      O1636   1.372       .  S
O1634      H1638   0.992       .  S
O1636      H1637   0.992       .  S
C1639      C1640   1.411       .  A
C1639      C1644   1.414       .  A
C1640      C1641   1.414       .  A
C1640      H1645   1.083       .  S
C1641      C1642   1.411       .  A
C1641      O1646   1.371       .  S
C1642      C1643   1.401       .  A
C1643      C1644   1.395       .  A
C1643      H1647   1.084       .  S
C1644      O1648   1.371       .  S
O1646      H1650   0.991       .  S
O1648      H1649   0.991       .  S
C1651      C1652   1.401       .  A
C1651      C1656   1.408       .  A
C1652      C1653   1.401       .  A
C1652      H1657   1.084       .  S
C1653      C1654   1.416       .  A
C1653      O1658   1.372       .  S
C1654      C1655   1.402       .  A
C1655      C1656   1.402       .  A
C1655      H1659   1.077       .  S
C1656      O1660   1.370       .  S
O1658      H1662   0.992       .  S
O1660      H1661   0.992       .  S
C1663      C1664   1.394       .  A
C1663      C1668   1.413       .  A
C1664      C1665   1.398       .  A
C1664      H1669   1.084       .  S
C1665      C1666   1.416       .  A
C1665      O1670   1.372       .  S
C1666      C1667   1.400       .  A
C1667      C1668   1.406       .  A
C1667      H1671   1.083       .  S
C1668      O1672   1.371       .  S
O1670      H1674   0.992       .  S
O1672      H1673   0.992       .  S
N1675      N1676   1.329       .  A
N1675      N1681   1.321       .  A
N1676      C1683   1.358       .  A
N1677      N1679   1.320       .  A
N1677      N1678   1.306       .  A
N1678      C1684   1.334       .  A
N1679      N1680   1.331       .  A
N1679     Mn1704   2.242   1_556  S
N1680      C1684   1.363       .  A
N1681      N1682   1.311       .  A
N1681     Mn1693   2.168       .  S
N1682      C1683   1.338       .  A
C1683      C2176   1.475       .  S
C1684      C2152   1.481       .  S
N1685      N1691   1.311       .  A
N1685      N1686   1.327       .  A
N1686      C1694   1.357       .  A
N1687      N1688   1.319       .  A
N1687      N1689   1.312       .  A
N1687     Mn1693   2.176       .  S
N1688      C1695   1.348       .  A
N1689      N1690   1.324       .  A
N1689     Mn1715   2.207       .  S
N1690      C1695   1.352       .  A
N1691      N1692   1.317       .  A
N1692      C1694   1.346       .  A
Mn1693    Cl1717   2.450       .  S
C1694      C2212   1.490       .  S
C1695      C2221   1.473       .  S
N1696      N1697   1.330       .  A
N1696      N1702   1.322       .  A
N1696     Mn1704   2.239   1_556  S
N1697      C1705   1.360       .  A
N1698      N1700   1.320       .  A
N1698      N1699   1.310       .  A
N1699      C1706   1.337       .  A
N1700      N1701   1.329       .  A
N1701      C1706   1.358       .  A
N1702      N1703   1.307       .  A
N1702     Mn1716   2.160   1_556  S
N1703      C1705   1.335       .  A
C1705      C2137   1.473       .  S
C1706      C2164   1.461       .  S
N1707      N1708   1.330       .  A
N1707      N1713   1.312       .  A
N1707     Mn1715   2.226       .  S
N1708      C1718   1.358       .  A
N1709      N1710   1.316       .  A
N1709      N1711   1.311       .  A
N1709     Mn1716   2.165   1_556  S
N1710      C1719   1.345       .  A
N1711      N1712   1.330       .  A
N1712      C1719   1.359       .  A
N1713      N1714   1.317       .  A
N1714      C1718   1.347       .  A
Mn1715    Cl1717   2.593       .  S
C1718      C2197   1.497       .  S
C1719      C2185   1.494       .  S
N1720      N1721   1.329       .  A
N1720      N1726   1.312       .  A
N1720     Mn1749   2.224       .  S
N1721      C1728   1.357       .  A
N1722      N1724   1.311       .  A
N1722      N1723   1.318       .  A
N1723      C1729   1.346       .  A
N1724      N1725   1.327       .  A
N1725      C1729   1.357       .  A
N1726      N1727   1.317       .  A
N1726     Mn1738   2.177       .  S
N1727      C1728   1.348       .  A
C1728      C2125   1.496       .  S
C1729      C2113   1.495       .  S
N1730      N1736   1.319       .  A
N1730      N1731   1.331       .  A
N1731      C1739   1.363       .  A
N1732      N1733   1.311       .  A
N1732      N1734   1.322       .  A
N1732     Mn1738   2.167       .  S
N1733      C1740   1.338       .  A
N1734      N1735   1.329       .  A
N1734     Mn1760   2.239       .  S
N1735      C1740   1.359       .  A
N1736      N1737   1.306       .  A
N1737      C1739   1.335       .  A
Mn1738    Cl1762   2.465       .  S
C1739      C2080   1.467       .  S
C1740      C2056   1.468       .  S
N1741      N1742   1.327       .  A
N1741      N1747   1.311       .  A
N1742      C1750   1.356       .  A
N1743      N1745   1.312       .  A
N1743      N1744   1.320       .  A
N1743     Mn1761   2.181       .  S
N1744      C1751   1.349       .  A
N1745      N1746   1.323       .  A
N1745     Mn1749   2.204       .  S
N1746      C1751   1.352       .  A
N1747      N1748   1.318       .  A
N1748      C1750   1.347       .  A
Mn1749    Cl1762   2.596       .  S
C1750      C2089   1.489       .  S
C1751      C2101   1.479       .  S
N1752      N1753   1.329       .  A
N1752      N1758   1.322       .  A
N1752     Mn1760   2.236       .  S
N1753      C1763   1.359       .  A
N1754      N1755   1.307       .  A
N1754      N1756   1.319       .  A
N1755      C1764   1.336       .  A
N1756      N1757   1.332       .  A
N1757      C1764   1.363       .  A
N1758      N1759   1.311       .  A
N1758     Mn1761   2.170       .  S
N1759      C1763   1.338       .  A
Mn1760    Cl1762   2.599       .  S
Mn1761    Cl1762   2.457       .  S
C1763      C2044   1.475       .  S
C1764      C2065   1.474       .  S
N1765      N1766   1.329       .  A
N1765      N1771   1.322       .  A
N1765     Mn1794   2.234       .  S
N1766      C1773   1.359       .  A
N1767      N1769   1.322       .  A
N1767      N1768   1.308       .  A
N1767     Mn1783   2.164       .  S
N1768      C1774   1.337       .  A
N1769      N1770   1.332       .  A
N1769     Mn1794   2.251       .  S
N1770      C1774   1.363       .  A
N1771      N1772   1.310       .  A
N1771     Mn1783   2.169       .  S
N1772      C1773   1.338       .  A
C1773      C2173   1.474       .  S
C1774      C2053   1.483       .  S
N1775      N1781   1.312       .  A
N1775      N1776   1.326       .  A
N1776      C1784   1.356       .  A
N1777      N1778   1.321       .  A
N1777      N1779   1.313       .  A
N1777     Mn1783   2.182       .  S
N1778      C1785   1.348       .  A
N1779      N1780   1.326       .  A
N1780      C1785   1.357       .  A
N1781      N1782   1.321       .  A
N1781     Mn1783   2.181       .  S
N1782      C1784   1.348       .  A
C1784      C2017   1.485       .  S
C1785      C2032   1.484       .  S
N1786      N1787   1.330       .  A
N1786      N1792   1.321       .  A
N1787      C1795   1.360       .  A
N1788      N1790   1.319       .  A
N1788      N1789   1.305       .  A
N1788     Mn1806   2.150       .  S
N1789      C1796   1.335       .  A
N1790      N1791   1.333       .  A
N1791      C1796   1.365       .  A
N1792      N1793   1.310       .  A
N1792     Mn1806   2.170       .  S
N1793      C1795   1.338       .  A
C1795      C2041   1.477       .  S
C1796      C2161   1.476       .  S
N1797      N1798   1.324       .  A
N1797      N1803   1.310       .  A
N1797     Mn1805   2.211   1_565  S
N1798      C1808   1.358       .  A
N1799      N1800   1.319       .  A
N1799      N1801   1.312       .  A
N1799     Mn1806   2.176       .  S
N1800      C1809   1.348       .  A
N1801      N1802   1.324       .  A
N1801     Mn1805   2.213   1_565  S
N1802      C1809   1.356       .  A
N1803      N1804   1.321       .  A
N1803     Mn1806   2.184       .  S
N1804      C1808   1.350       .  A
Mn1805    Cl1807   2.578       .  S
Mn1806    Cl1807   2.459   1_565  S
C1808      C2008   1.493       .  S
C1809      C1993   1.483       .  S
N1810      N1811   1.324       .  A
N1810      N1816   1.313       .  A
N1810     Mn1839   2.220       .  S
N1811      C1818   1.358       .  A
N1812      N1814   1.311       .  A
N1812      N1813   1.320       .  A
N1812     Mn1828   2.179       .  S
N1813      C1819   1.349       .  A
N1814      N1815   1.323       .  A
N1814     Mn1839   2.205       .  S
N1815      C1819   1.357       .  A
N1816      N1817   1.321       .  A
N1816     Mn1828   2.188       .  S
N1817      C1818   1.351       .  A
C1818      C1984   1.493       .  S
C1819      C1969   1.487       .  S
N1820      N1826   1.319       .  A
N1820      N1821   1.329       .  A
N1820     Mn1850   2.236       .  S
N1821      C1829   1.360       .  A
N1822      N1823   1.311       .  A
N1822      N1824   1.321       .  A
N1822     Mn1828   2.164       .  S
N1823      C1830   1.338       .  A
N1824      N1825   1.327       .  A
N1824     Mn1850   2.226       .  S
N1825      C1830   1.356       .  A
N1826      N1827   1.308       .  A
N1826     Mn1828   2.159       .  S
N1827      C1829   1.337       .  A
Mn1828    Cl1852   2.477       .  S
C1829      C2077   1.462       .  S
C1830      C2149   1.463       .  S
N1831      N1832   1.329       .  A
N1831      N1837   1.313       .  A
N1832      C1840   1.359       .  A
N1833      N1835   1.313       .  A
N1833      N1834   1.322       .  A
N1833     Mn1851   2.178       .  S
N1834      C1841   1.348       .  A
N1835      N1836   1.324       .  A
N1836      C1841   1.356       .  A
N1837      N1838   1.320       .  A
N1837     Mn1851   2.179       .  S
N1838      C1840   1.346       .  A
Mn1839    Cl1852   2.569       .  S
C1840      C1948   1.490       .  S
C1841      C1960   1.481       .  S
N1842      N1843   1.328       .  A
N1842      N1848   1.322       .  A
N1843      C1853   1.357       .  A
N1844      N1845   1.309       .  A
N1844      N1846   1.320       .  A
N1844     Mn1851   2.163       .  S
N1845      C1854   1.337       .  A
N1846      N1847   1.329       .  A
N1847      C1854   1.359       .  A
N1848      N1849   1.310       .  A
N1848     Mn1851   2.167       .  S
N1849      C1853   1.337       .  A
Mn1850    Cl1852   2.597       .  S
C1853      C2140   1.469       .  S
C1854      C2068   1.462       .  S
N1855      N1856   1.330       .  A
N1855      N1861   1.320       .  A
N1855     Mn4116   2.245       .  S
N1856      C1863   1.361       .  A
N1857      N1859   1.320       .  A
N1857      N1858   1.311       .  A
N1857     Mn4105   2.189       .  S
N1858      C1864   1.342       .  A
N1859      N1860   1.332       .  A
N1859     Mn1884   2.237       .  S
N1860      C1864   1.362       .  A
N1861      N1862   1.311       .  A
N1861     Mn1873   2.173   1_455  S
N1862      C1863   1.339       .  A
C1863      C2224   1.476       .  S
C1864      C2128   1.479       .  S
N1865      N1871   1.312       .  A
N1865      N1866   1.322       .  A
N1865     Mn4127   2.212       .  S
N1866      C1874   1.356       .  A
N1867      N1868   1.322       .  A
N1867      N1869   1.313       .  A
N1867     Mn1873   2.199   1_455  S
N1868      C1875   1.351       .  A
N1869      N1870   1.324       .  A
N1869     Mn1895   2.207   1_455  S
N1870      C1875   1.354       .  A
N1871      N1872   1.323       .  A
N1871     Mn4105   2.192       .  S
N1872      C1874   1.351       .  A
Mn1873     N4089   2.189       .  S
Mn1873     N4103   2.192       .  S
Mn1873    Cl1897   2.463       .  S
C1874      C2020   1.488       .  S
C1875      C2029   1.485       .  S
N1876      N1877   1.332       .  A
N1876      N1882   1.319       .  A
N1876     Mn1884   2.252       .  S
N1877      C1885   1.364       .  A
N1878      N1880   1.320       .  A
N1878      N1879   1.313       .  A
N1878     Mn1896   2.182   1_455  S
N1879      C1886   1.342       .  A
N1880      N1881   1.328       .  A
N1880     Mn4116   2.240       .  S
N1881      C1886   1.361       .  A
N1882      N1883   1.312       .  A
N1882     Mn4128   2.177       .  S
N1883      C1885   1.341       .  A
Mn1884     N4087   2.245       .  S
Mn1884     N4112   2.240       .  S
Mn1884    Cl4129   2.615       .  S
C1885      C2116   1.481       .  S
C1886      C2209   1.473       .  S
N1887      N1888   1.322       .  A
N1887      N1893   1.312       .  A
N1887     Mn1895   2.205   1_455  S
N1888      C1898   1.354       .  A
N1889      N1890   1.323       .  A
N1889      N1891   1.314       .  A
N1889     Mn4128   2.195       .  S
N1890      C1899   1.352       .  A
N1891      N1892   1.321       .  A
N1891     Mn4127   2.211       .  S
N1892      C1899   1.355       .  A
N1893      N1894   1.322       .  A
N1893     Mn1896   2.196   1_455  S
N1894      C1898   1.353       .  A
Mn1895     N4097   2.212       .  S
Mn1895     N4123   2.211       .  S
Mn1895    Cl1897   2.591       .  S
Mn1896     N4114   2.177       .  S
Mn1896     N4121   2.195       .  S
Mn1896    Cl1897   2.477       .  S
Cl1897    Mn4116   2.615   1_655  S
C1898      C1981   1.492       .  S
C1899      C1972   1.495       .  S
N1900      N1901   1.323       .  A
N1900      N1906   1.314       .  A
N1900     Mn4161   2.211   1_455  S
N1901      C1908   1.354       .  A
N1902      N1904   1.313       .  A
N1902      N1903   1.322       .  A
N1902     Mn1918   2.187       .  S
N1903      C1909   1.350       .  A
N1904      N1905   1.321       .  A
N1904     Mn1929   2.206       .  S
N1905      C1909   1.355       .  A
N1906      N1907   1.322       .  A
N1906     Mn4150   2.196   1_455  S
N1907      C1908   1.351       .  A
C1908      C2005   1.491       .  S
C1909      C1996   1.487       .  S
N1910      N1916   1.320       .  A
N1910      N1911   1.328       .  A
N1910     Mn1940   2.240       .  S
N1911      C1919   1.361       .  A
N1912      N1913   1.311       .  A
N1912      N1914   1.319       .  A
N1912     Mn4150   2.181   1_455  S
N1913      C1920   1.342       .  A
N1914      N1915   1.334       .  A
N1914     Mn4172   2.249       .  S
N1915      C1920   1.364       .  A
N1916      N1917   1.313       .  A
N1916     Mn1918   2.182       .  S
N1917      C1919   1.342       .  A
Mn1918     N4138   2.195       .  S
Mn1918     N4144   2.181       .  S
Mn1918    Cl1942   2.476       .  S
C1919      C2104   1.471       .  S
C1920      C2200   1.486       .  S
N1921      N1922   1.324       .  A
N1921      N1927   1.312       .  A
N1921     Mn1929   2.218       .  S
N1922      C1930   1.357       .  A
N1923      N1925   1.312       .  A
N1923      N1924   1.322       .  A
N1923     Mn4173   2.198       .  S
N1924      C1931   1.351       .  A
N1925      N1926   1.324       .  A
N1925     Mn4161   2.205   1_455  S
N1926      C1931   1.353       .  A
N1927      N1928   1.323       .  A
N1927     Mn1941   2.198       .  S
N1928      C1930   1.352       .  A
Mn1929     N4132   2.211       .  S
Mn1929     N4157   2.205       .  S
Mn1929    Cl1942   2.588       .  S
C1930      C1945   1.489       .  S
C1931      C1957   1.479       .  S
N1932      N1933   1.332       .  A
N1932      N1938   1.319       .  A
N1932     Mn4172   2.245       .  S
N1933      C1943   1.364       .  A
N1934      N1935   1.312       .  A
N1934      N1936   1.319       .  A
N1934     Mn1941   2.174       .  S
N1935      C1944   1.340       .  A
N1936      N1937   1.329       .  A
N1936     Mn1940   2.243       .  S
N1937      C1944   1.361       .  A
N1938      N1939   1.309       .  A
N1938     Mn4173   2.176       .  S
N1939      C1943   1.341       .  A
Mn1940     N4146   2.249       .  S
Mn1940     N4164   2.245       .  S
Mn1940    Cl1942   2.616       .  S
Mn1941     N4155   2.198       .  S
Mn1941     N4170   2.176       .  S
Mn1941    Cl1942   2.468       .  S
C1943      C2188   1.478       .  S
C1944      C2092   1.472       .  S
C1945      C1946   1.406       .  A
C1945      C1950   1.407       .  A
C1946      C1947   1.406       .  A
C1946      H1951   1.084       .  S
C1947      C1948   1.411       .  A
C1947      O1952   1.371       .  S
C1948      C1949   1.405       .  A
C1949      C1950   1.408       .  A
C1949      H1953   1.081       .  S
C1950      O1954   1.369       .  S
O1952      H1956   0.992       .  S
C1957      C1958   1.401       .  A
C1957      C1962   1.411       .  A
C1958      C1959   1.404       .  A
C1958      H1963   1.084       .  S
C1959      C1960   1.412       .  A
C1959      O1964   1.371       .  S
C1960      C1961   1.401       .  A
C1961      C1962   1.404       .  A
C1961      H1965   1.083       .  S
C1962      O1966   1.372       .  S
O1964      H1968   0.987   1_565  S
O1966      H1967   0.992       .  S
C1969      C1970   1.399       .  A
C1969      C1974   1.416       .  A
C1970      C1971   1.396       .  A
C1970      H1975   1.084       .  S
C1971      C1972   1.411       .  A
C1971      O1976   1.361       .  S
C1972      C1973   1.405       .  A
C1973      C1974   1.406       .  A
C1973      H1977   1.083       .  S
C1974      O1978   1.370       .  S
O1976      H1980   0.985       .  S
O1978      H1979   0.992       .  S
C1981      C1982   1.406       .  A
C1981      C1986   1.412       .  A
C1982      C1983   1.405       .  A
C1982      H1987   1.083       .  S
C1983      C1984   1.415       .  A
C1983      O1988   1.371       .  S
C1984      C1985   1.402       .  A
C1985      C1986   1.401       .  A
C1985      H1989   1.079       .  S
C1986      O1990   1.369       .  S
O1988      H1992   0.992       .  S
O1990      H1991   0.991       .  S
C1993      C1994   1.399       .  A
C1993      C1998   1.416       .  A
C1994      C1995   1.398       .  A
C1994      H1999   1.084       .  S
C1995      C1996   1.408       .  A
C1995      O2000   1.362       .  S
C1996      C1997   1.402       .  A
C1997      C1998   1.405       .  A
C1997      H2001   1.083       .  S
C1998      O2002   1.372       .  S
O2000      H2004   0.988       .  S
O2002      H2003   0.992       .  S
C2005      C2006   1.404       .  A
C2005      C2010   1.411       .  A
C2006      C2007   1.402       .  A
C2006      H2011   1.080       .  S
C2007      C2008   1.408       .  A
C2007      O2012   1.367       .  S
C2008      C2009   1.408       .  A
C2009      C2010   1.406       .  A
C2009      H2013   1.083       .  S
C2010      O2014   1.371       .  S
O2012      H2016   0.988       .  S
O2014      H2015   0.992       .  S
C2017      C2018   1.405       .  A
C2017      C2022   1.410       .  A
C2018      C2019   1.405       .  A
C2018      H2023   1.082       .  S
C2019      C2020   1.408       .  A
C2019      O2024   1.368       .  S
C2020      C2021   1.405       .  A
C2021      C2022   1.405       .  A
C2021      H2025   1.084       .  S
C2022      O2026   1.371       .  S
O2026      H2027   0.992       .  S
C2029      C2030   1.402       .  A
C2029      C2034   1.413       .  A
C2030      C2031   1.404       .  A
C2030      H2035   1.084       .  S
C2031      C2032   1.407       .  A
C2031      O2036   1.367       .  S
C2032      C2033   1.402       .  A
C2033      C2034   1.406       .  A
C2033      H2037   1.083       .  S
C2034      O2038   1.372       .  S
O2038      H2039   0.992       .  S
C2041      C2042   1.395       .  A
C2041      C2046   1.419       .  A
C2042      C2043   1.401       .  A
C2042      H2047   1.083       .  S
C2043      C2044   1.418       .  A
C2043      O2048   1.373       .  S
C2044      C2045   1.394       .  A
C2045      C2046   1.398       .  A
C2045      H2049   1.084       .  S
C2046      O2050   1.372       .  S
O2048      H2052   0.992       .  S
O2050      H2051   0.992       .  S
C2053      C2054   1.415       .  A
C2053      C2058   1.403       .  A
C2054      C2055   1.396       .  A
C2054      H2059   1.083       .  S
C2055      C2056   1.395       .  A
C2055      O2060   1.371       .  S
C2056      C2057   1.411       .  A
C2057      C2058   1.403       .  A
C2057      H2061   1.084       .  S
C2058      O2062   1.371       .  S
O2060      H2064   0.992       .  S
O2062      H2063   0.992       .  S
C2065      C2066   1.403       .  A
C2065      C2070   1.409       .  A
C2066      C2067   1.389       .  A
C2066      H2071   1.079       .  S
C2067      C2068   1.400       .  A
C2067      O2072   1.372       .  S
C2068      C2069   1.408       .  A
C2069      C2070   1.410       .  A
C2069      H2073   1.084       .  S
C2070      O2074   1.371       .  S
O2072      H2076   0.992       .  S
O2074      H2075   0.992       .  S
C2077      C2078   1.406       .  A
C2077      C2082   1.402       .  A
C2078      C2079   1.407       .  A
C2078      H2083   1.084       .  S
C2079      C2080   1.409       .  A
C2079      O2084   1.371       .  S
C2080      C2081   1.403       .  A
C2081      C2082   1.390       .  A
C2081      H2085   1.085       .  S
C2082      O2086   1.371       .  S
O2084      H2088   0.992       .  S
O2086      H2087   0.992       .  S
C2089      C2090   1.401       .  A
C2089      C2094   1.416       .  A
C2090      C2091   1.404       .  A
C2090      H2095   1.083       .  S
C2091      C2092   1.409       .  A
C2091      O2096   1.368       .  S
C2092      C2093   1.398       .  A
C2093      C2094   1.401       .  A
C2093      H2097   1.084       .  S
C2094      O2098   1.369       .  S
O2096      H2100   0.992       .  S
O2098      H2099   0.991       .  S
C2101      C2102   1.399       .  A
C2101      C2106   1.414       .  A
C2102      C2103   1.399       .  A
C2102      H2107   1.084       .  S
C2103      C2104   1.408       .  A
C2103      O2108   1.369       .  S
C2104      C2105   1.400       .  A
C2105      C2106   1.404       .  A
C2105      H2109   1.083       .  S
C2106      O2110   1.371       .  S
O2108      H2112   0.992       .  S
O2110      H2111   0.992       .  S
C2113      C2114   1.406       .  A
C2113      C2118   1.413       .  A
C2114      C2115   1.400       .  A
C2114      H2119   1.083       .  S
C2115      C2116   1.408       .  A
C2115      O2120   1.373       .  S
C2116      C2117   1.404       .  A
C2117      C2118   1.408       .  A
C2117      H2121   1.081       .  S
C2118      O2122   1.368       .  S
O2120      H2124   0.992       .  S
O2122      H2123   0.990       .  S
C2125      C2126   1.411       .  A
C2125      C2130   1.415       .  A
C2126      C2127   1.413       .  A
C2126      H2131   1.083       .  S
C2127      C2128   1.412       .  A
C2127      O2132   1.373       .  S
C2128      C2129   1.400       .  A
C2129      C2130   1.395       .  A
C2129      H2133   1.085       .  S
C2130      O2134   1.372       .  S
O2132      H2136   0.989       .  S
O2134      H2135   0.992       .  S
C2137      C2138   1.394       .  A
C2137      C2142   1.421       .  A
C2138      C2139   1.400       .  A
C2138      H2143   1.083       .  S
C2139      C2140   1.417       .  A
C2139      O2144   1.373       .  S
C2140      C2141   1.391       .  A
C2141      C2142   1.395       .  A
C2141      H2145   1.084       .  S
C2142      O2146   1.372       .  S
O2144      H2148   0.992       .  S
O2146      H2147   0.991       .  S
C2149      C2150   1.388       .  A
C2149      C2154   1.413       .  A
C2150      C2151   1.394       .  A
C2150      H2155   1.084       .  S
C2151      C2152   1.424       .  A
C2151      O2156   1.372       .  S
C2152      C2153   1.398       .  A
C2153      C2154   1.402       .  A
C2153      H2157   1.083       .  S
C2154      O2158   1.373       .  S
O2156      H2160   0.992       .  S
O2158      H2159   0.992       .  S
C2161      C2162   1.407       .  A
C2161      C2166   1.409       .  A
C2162      C2163   1.389       .  A
C2162      H2167   1.084       .  S
C2163      C2164   1.398       .  A
C2163      O2168   1.371       .  S
C2164      C2165   1.409       .  A
C2165      C2166   1.409       .  A
C2165      H2169   1.084       .  S
C2166      O2170   1.371       .  S
O2168      H2172   0.992       .  S
O2170      H2171   0.992       .  S
C2173      C2174   1.394       .  A
C2173      C2178   1.418       .  A
C2174      C2175   1.400       .  A
C2174      H2179   1.084       .  S
C2175      C2176   1.418       .  A
C2175      O2180   1.373       .  S
C2176      C2177   1.394       .  A
C2177      C2178   1.400       .  A
C2177      H2181   1.084       .  S
C2178      O2182   1.373       .  S
O2180      H2184   0.992       .  S
O2182      H2183   0.992       .  S
C2185      C2186   1.408       .  A
C2185      C2190   1.415       .  A
C2186      C2187   1.410       .  A
C2186      H2191   1.079       .  S
C2187      C2188   1.407       .  A
C2187      O2192   1.369       .  S
C2188      C2189   1.401       .  A
C2189      C2190   1.397       .  A
C2189      H2193   1.085       .  S
C2190      O2194   1.372       .  S
O2192      H2196   0.992       .  S
O2194      H2195   0.992       .  S
C2197      C2198   1.411       .  A
C2197      C2202   1.414       .  A
C2198      C2199   1.414       .  A
C2198      H2203   1.083       .  S
C2199      C2200   1.411       .  A
C2199      O2204   1.371       .  S
C2200      C2201   1.401       .  A
C2201      C2202   1.395       .  A
C2201      H2205   1.084       .  S
C2202      O2206   1.371       .  S
O2204      H2208   0.991       .  S
O2206      H2207   0.991       .  S
C2209      C2210   1.401       .  A
C2209      C2214   1.408       .  A
C2210      C2211   1.401       .  A
C2210      H2215   1.084       .  S
C2211      C2212   1.416       .  A
C2211      O2216   1.372       .  S
C2212      C2213   1.402       .  A
C2213      C2214   1.402       .  A
C2213      H2217   1.077       .  S
C2214      O2218   1.370       .  S
O2216      H2220   0.992       .  S
O2218      H2219   0.992       .  S
C2221      C2222   1.394       .  A
C2221      C2226   1.413       .  A
C2222      C2223   1.398       .  A
C2222      H2227   1.084       .  S
C2223      C2224   1.416       .  A
C2223      O2228   1.372       .  S
C2224      C2225   1.400       .  A
C2225      C2226   1.406       .  A
C2225      H2229   1.083       .  S
C2226      O2230   1.371       .  S
O2228      H2232   0.992       .  S
O2230      H2231   0.992       .  S
N2233      N2234   1.329       .  A
N2233      N2239   1.321       .  A
N2233     Mn2820   2.231       .  S
N2234      C2241   1.358       .  A
N2235      N2237   1.320       .  A
N2235      N2236   1.306       .  A
N2235     Mn2809   2.157       .  S
N2236      C2242   1.334       .  A
N2237      N2238   1.331       .  A
N2237     Mn2262   2.242       .  S
N2238      C2242   1.363       .  A
N2239      N2240   1.311       .  A
N2239     Mn2251   2.168       .  S
N2240      C2241   1.338       .  A
C2241      C2734   1.475       .  S
C2242      C2710   1.481       .  S
N2243      N2249   1.311       .  A
N2243      N2244   1.327       .  A
N2243     Mn2831   2.208       .  S
N2244      C2252   1.357       .  A
N2245      N2246   1.319       .  A
N2245      N2247   1.312       .  A
N2245     Mn2251   2.176       .  S
N2246      C2253   1.348       .  A
N2247      N2248   1.324       .  A
N2247     Mn2273   2.207       .  S
N2248      C2253   1.352       .  A
N2249      N2250   1.317       .  A
N2249     Mn2809   2.176       .  S
N2250      C2252   1.346       .  A
Mn2251     N2793   2.157   1_554  S
Mn2251     N2807   2.176   1_554  S
Mn2251    Cl2275   2.450       .  S
C2252      C2770   1.490       .  S
C2253      C2779   1.473       .  S
N2254      N2255   1.330       .  A
N2254      N2260   1.322       .  A
N2254     Mn2262   2.239       .  S
N2255      C2263   1.360       .  A
N2256      N2258   1.320       .  A
N2256      N2257   1.310       .  A
N2256     Mn2832   2.166       .  S
N2257      C2264   1.337       .  A
N2258      N2259   1.329       .  A
N2258     Mn2820   2.230       .  S
N2259      C2264   1.358       .  A
N2260      N2261   1.307       .  A
N2260     Mn2274   2.160       .  S
N2261      C2263   1.335       .  A
Mn2262     N2791   2.231       .  S
Mn2262     N2816   2.230       .  S
Mn2262    Cl2833   2.597       .  S
C2263      C2695   1.473       .  S
C2264      C2722   1.461       .  S
N2265      N2266   1.330       .  A
N2265      N2271   1.312       .  A
N2265     Mn2273   2.226       .  S
N2266      C2276   1.358       .  A
N2267      N2268   1.316       .  A
N2267      N2269   1.311       .  A
N2267     Mn2274   2.165       .  S
N2268      C2277   1.345       .  A
N2269      N2270   1.330       .  A
N2269     Mn2831   2.222       .  S
N2270      C2277   1.359       .  A
N2271      N2272   1.317       .  A
N2271     Mn2832   2.173       .  S
N2272      C2276   1.347       .  A
Mn2273     N2801   2.208   1_554  S
Mn2273     N2827   2.222   1_554  S
Mn2273    Cl2275   2.593       .  S
Mn2274     N2814   2.166       .  S
Mn2274     N2829   2.173       .  S
Mn2274    Cl2833   2.457       .  S
Cl2275    Mn2820   2.597       .  S
Cl2275    Mn2832   2.457       .  S
C2276      C2755   1.497       .  S
C2277      C2743   1.494       .  S
N2278      N2279   1.329       .  A
N2278      N2284   1.312       .  A
N2278     Mn2307   2.224       .  S
N2279      C2286   1.357       .  A
N2280      N2282   1.311       .  A
N2280      N2281   1.318       .  A
N2280     Mn2854   2.170       .  S
N2281      C2287   1.346       .  A
N2282      N2283   1.327       .  A
N2282     Mn2865   2.216       .  S
N2283      C2287   1.357       .  A
N2284      N2285   1.317       .  A
N2284     Mn2296   2.177       .  S
N2285      C2286   1.348       .  A
C2286      C2683   1.496       .  S
C2287      C2671   1.495       .  S
N2288      N2294   1.319       .  A
N2288      N2289   1.331       .  A
N2288     Mn2876   2.245       .  S
N2289      C2297   1.363       .  A
N2290      N2291   1.311       .  A
N2290      N2292   1.322       .  A
N2290     Mn2296   2.167       .  S
N2291      C2298   1.338       .  A
N2292      N2293   1.329       .  A
N2292     Mn2318   2.239       .  S
N2293      C2298   1.359       .  A
N2294      N2295   1.306       .  A
N2294     Mn2854   2.152       .  S
N2295      C2297   1.335       .  A
Mn2296     N2838   2.170   1_554  S
Mn2296     N2852   2.152   1_554  S
Mn2296    Cl2320   2.464       .  S
C2297      C2638   1.467       .  S
C2298      C2614   1.468       .  S
N2299      N2300   1.327       .  A
N2299      N2305   1.311       .  A
N2299     Mn2865   2.208       .  S
N2300      C2308   1.356       .  A
N2301      N2303   1.312       .  A
N2301      N2302   1.320       .  A
N2301     Mn2319   2.181       .  S
N2302      C2309   1.349       .  A
N2303      N2304   1.323       .  A
N2303     Mn2307   2.204       .  S
N2304      C2309   1.352       .  A
N2305      N2306   1.318       .  A
N2305     Mn2877   2.182       .  S
N2306      C2308   1.347       .  A
Mn2307     N2840   2.216   1_554  S
Mn2307     N2857   2.208   1_554  S
Mn2307    Cl2320   2.596       .  S
C2308      C2647   1.489       .  S
C2309      C2659   1.479       .  S
N2310      N2311   1.329       .  A
N2310      N2316   1.322       .  A
N2310     Mn2318   2.236       .  S
N2311      C2321   1.359       .  A
N2312      N2313   1.307       .  A
N2312      N2314   1.319       .  A
N2312     Mn2877   2.159       .  S
N2313      C2322   1.336       .  A
N2314      N2315   1.332       .  A
N2314     Mn2876   2.246       .  S
N2315      C2322   1.363       .  A
N2316      N2317   1.311       .  A
N2316     Mn2319   2.170       .  S
N2317      C2321   1.338       .  A
Mn2318     N2846   2.245   1_554  S
Mn2318     N2872   2.246   1_554  S
Mn2318    Cl2320   2.599       .  S
Mn2319     N2863   2.182   1_554  S
Mn2319     N2870   2.159   1_554  S
Mn2319    Cl2320   2.456       .  S
C2321      C2602   1.475       .  S
C2322      C2623   1.474       .  S
N2323      N2324   1.329       .  A
N2323      N2329   1.322       .  A
N2323     Mn2352   2.234       .  S
N2324      C2331   1.359       .  A
N2325      N2327   1.322       .  A
N2325      N2326   1.308       .  A
N2325     Mn2341   2.164       .  S
N2326      C2332   1.337       .  A
N2327      N2328   1.332       .  A
N2327     Mn2352   2.251       .  S
N2328      C2332   1.363       .  A
N2329      N2330   1.310       .  A
N2329     Mn2341   2.169       .  S
N2330      C2331   1.338       .  A
C2331      C2731   1.474       .  S
C2332      C2611   1.483       .  S
N2333      N2339   1.312       .  A
N2333      N2334   1.326       .  A
N2333     Mn3479   2.220       .  S
N2334      C2342   1.356       .  A
N2335      N2336   1.321       .  A
N2335      N2337   1.313       .  A
N2335     Mn2341   2.182       .  S
N2336      C2343   1.348       .  A
N2337      N2338   1.326       .  A
N2337     Mn3479   2.225       .  S
N2338      C2343   1.357       .  A
N2339      N2340   1.321       .  A
N2339     Mn2341   2.181       .  S
N2340      C2342   1.348       .  A
Mn2341    Cl3481   2.471       .  S
C2342      C2575   1.485       .  S
C2343      C2590   1.484       .  S
N2344      N2345   1.330       .  A
N2344      N2350   1.321       .  A
N2344     Mn3468   2.235       .  S
N2345      C2353   1.360       .  A
N2346      N2348   1.319       .  A
N2346      N2347   1.305       .  A
N2346     Mn2364   2.150       .  S
N2347      C2354   1.335       .  A
N2348      N2349   1.333       .  A
N2348     Mn3468   2.249       .  S
N2349      C2354   1.365       .  A
N2350      N2351   1.310       .  A
N2350     Mn2364   2.170       .  S
N2351      C2353   1.338       .  A
Mn2352     N3460   2.235   1_545  S
Mn2352     N3464   2.249   1_545  S
Mn2352    Cl3481   2.611       .  S
C2353      C2599   1.477       .  S
C2354      C2719   1.476       .  S
N2355      N2356   1.324       .  A
N2355      N2361   1.310       .  A
N2355     Mn2363   2.211       .  S
N2356      C2366   1.358       .  A
N2357      N2358   1.319       .  A
N2357      N2359   1.312       .  A
N2357     Mn2364   2.176       .  S
N2358      C2367   1.348       .  A
N2359      N2360   1.324       .  A
N2359     Mn2363   2.213       .  S
N2360      C2367   1.356       .  A
N2361      N2362   1.321       .  A
N2361     Mn2364   2.184       .  S
N2362      C2366   1.350       .  A
Mn2363     N3449   2.220       .  S
Mn2363     N3453   2.225       .  S
Mn2363    Cl2365   2.577       .  S
Mn2364    Cl2365   2.459       .  S
Cl2365    Mn3457   2.471       .  S
Cl2365    Mn3468   2.611       .  S
C2366      C2566   1.493       .  S
C2367      C2551   1.483       .  S
N2368      N2369   1.324       .  A
N2368      N2374   1.313       .  A
N2368     Mn2397   2.220       .  S
N2369      C2376   1.358       .  A
N2370      N2372   1.311       .  A
N2370      N2371   1.320       .  A
N2370     Mn2386   2.179       .  S
N2371      C2377   1.349       .  A
N2372      N2373   1.323       .  A
N2372     Mn2397   2.205       .  S
N2373      C2377   1.357       .  A
N2374      N2375   1.321       .  A
N2374     Mn2386   2.188       .  S
N2375      C2376   1.351       .  A
C2376      C2542   1.493       .  S
C2377      C2527   1.487       .  S
N2378      N2384   1.319       .  A
N2378      N2379   1.329       .  A
N2378     Mn2408   2.236       .  S
N2379      C2387   1.360       .  A
N2380      N2381   1.311       .  A
N2380      N2382   1.321       .  A
N2380     Mn2386   2.164       .  S
N2381      C2388   1.338       .  A
N2382      N2383   1.327       .  A
N2382     Mn2408   2.226       .  S
N2383      C2388   1.356       .  A
N2384      N2385   1.308       .  A
N2384     Mn2386   2.159       .  S
N2385      C2387   1.337       .  A
Mn2386    Cl2410   2.477       .  S
C2387      C2635   1.462       .  S
C2388      C2707   1.463       .  S
N2389      N2390   1.329       .  A
N2389      N2395   1.313       .  A
N2389     Mn3513   2.232       .  S
N2390      C2398   1.359       .  A
N2391      N2393   1.313       .  A
N2391      N2392   1.322       .  A
N2391     Mn2409   2.179       .  S
N2392      C2399   1.348       .  A
N2393      N2394   1.324       .  A
N2393     Mn3513   2.223       .  S
N2394      C2399   1.356       .  A
N2395      N2396   1.320       .  A
N2395     Mn2409   2.180       .  S
N2396      C2398   1.346       .  A
Mn2397     N3505   2.232   1_545  S
Mn2397     N3509   2.223   1_545  S
Mn2397    Cl2410   2.569       .  S
C2398      C2506   1.490       .  S
C2399      C2518   1.481       .  S
N2400      N2401   1.328       .  A
N2400      N2406   1.322       .  A
N2400     Mn3524   2.228       .  S
N2401      C2411   1.357       .  A
N2402      N2403   1.309       .  A
N2402      N2404   1.320       .  A
N2402     Mn2409   2.162       .  S
N2403      C2412   1.336       .  A
N2404      N2405   1.329       .  A
N2404     Mn3524   2.231       .  S
N2405      C2412   1.359       .  A
N2406      N2407   1.310       .  A
N2406     Mn2409   2.166       .  S
N2407      C2411   1.337       .  A
Mn2408     N3516   2.228   1_545  S
Mn2408     N3520   2.231   1_545  S
Mn2408    Cl2410   2.597       .  S
Mn2409    Cl3526   2.481       .  S
Cl2410    Mn3525   2.481   1_545  S
C2411      C2698   1.469       .  S
C2412      C2626   1.462       .  S
N2413      N2414   1.330       .  A
N2413      N2419   1.320       .  A
N2414      C2421   1.361       .  A
N2415      N2417   1.320       .  A
N2415      N2416   1.311       .  A
N2416      C2422   1.342       .  A
N2417      N2418   1.332       .  A
N2417     Mn2442   2.237   1_655  S
N2418      C2422   1.362       .  A
N2419      N2420   1.311       .  A
N2419     Mn2431   2.173       .  S
N2420      C2421   1.339       .  A
C2421      C2782   1.476       .  S
C2422      C2686   1.479       .  S
N2423      N2429   1.312       .  A
N2423      N2424   1.322       .  A
N2424      C2432   1.356       .  A
N2425      N2426   1.322       .  A
N2425      N2427   1.313       .  A
N2425     Mn2431   2.199       .  S
N2426      C2433   1.351       .  A
N2427      N2428   1.324       .  A
N2427     Mn2453   2.207       .  S
N2428      C2433   1.354       .  A
N2429      N2430   1.323       .  A
N2430      C2432   1.351       .  A
Mn2431    Cl2455   2.463       .  S
C2432      C2578   1.488       .  S
C2433      C2587   1.485       .  S
N2434      N2435   1.332       .  A
N2434      N2440   1.319       .  A
N2434     Mn2442   2.252   1_655  S
N2435      C2443   1.364       .  A
N2436      N2438   1.320       .  A
N2436      N2437   1.313       .  A
N2436     Mn2454   2.182       .  S
N2437      C2444   1.342       .  A
N2438      N2439   1.328       .  A
N2439      C2444   1.361       .  A
N2440      N2441   1.312       .  A
N2441      C2443   1.341       .  A
C2443      C2674   1.481       .  S
C2444      C2767   1.473       .  S
N2445      N2446   1.322       .  A
N2445      N2451   1.312       .  A
N2445     Mn2453   2.205       .  S
N2446      C2456   1.354       .  A
N2447      N2448   1.323       .  A
N2447      N2449   1.314       .  A
N2448      C2457   1.352       .  A
N2449      N2450   1.321       .  A
N2450      C2457   1.355       .  A
N2451      N2452   1.322       .  A
N2451     Mn2454   2.196       .  S
N2452      C2456   1.353       .  A
Mn2453    Cl2455   2.591       .  S
Mn2454    Cl2455   2.477       .  S
C2456      C2539   1.492       .  S
C2457      C2530   1.495       .  S
N2458      N2459   1.323       .  A
N2458      N2464   1.314       .  A
N2459      C2466   1.354       .  A
N2460      N2462   1.313       .  A
N2460      N2461   1.322       .  A
N2460     Mn2476   2.187       .  S
N2461      C2467   1.350       .  A
N2462      N2463   1.321       .  A
N2462     Mn2487   2.206       .  S
N2463      C2467   1.355       .  A
N2464      N2465   1.322       .  A
N2465      C2466   1.351       .  A
C2466      C2563   1.491       .  S
C2467      C2554   1.487       .  S
N2468      N2474   1.320       .  A
N2468      N2469   1.328       .  A
N2468     Mn2498   2.240   1_655  S
N2469      C2477   1.361       .  A
N2470      N2471   1.311       .  A
N2470      N2472   1.319       .  A
N2471      C2478   1.342       .  A
N2472      N2473   1.334       .  A
N2473      C2478   1.364       .  A
N2474      N2475   1.313       .  A
N2474     Mn2476   2.182       .  S
N2475      C2477   1.342       .  A
Mn2476    Cl2500   2.476       .  S
C2477      C2662   1.471       .  S
C2478      C2758   1.486       .  S
N2479      N2480   1.324       .  A
N2479      N2485   1.312       .  A
N2479     Mn2487   2.218       .  S
N2480      C2488   1.357       .  A
N2481      N2483   1.312       .  A
N2481      N2482   1.322       .  A
N2482      C2489   1.350       .  A
N2483      N2484   1.324       .  A
N2484      C2489   1.353       .  A
N2485      N2486   1.323       .  A
N2485     Mn2499   2.198   1_655  S
N2486      C2488   1.352       .  A
Mn2487    Cl2500   2.588       .  S
C2488      C2503   1.489       .  S
C2489      C2515   1.479       .  S
N2490      N2491   1.332       .  A
N2490      N2496   1.319       .  A
N2491      C2501   1.364       .  A
N2492      N2493   1.312       .  A
N2492      N2494   1.319       .  A
N2492     Mn2499   2.174   1_655  S
N2493      C2502   1.340       .  A
N2494      N2495   1.329       .  A
N2494     Mn2498   2.243   1_655  S
N2495      C2502   1.361       .  A
N2496      N2497   1.309       .  A
N2497      C2501   1.341       .  A
Mn2498    Cl2500   2.616   1_455  S
Mn2499    Cl2500   2.468   1_455  S
C2501      C2746   1.478       .  S
C2502      C2650   1.472       .  S
C2503      C2504   1.406       .  A
C2503      C2508   1.407       .  A
C2504      C2505   1.406       .  A
C2504      H2509   1.084       .  S
C2505      C2506   1.411       .  A
C2505      O2510   1.371       .  S
C2506      C2507   1.405       .  A
C2507      C2508   1.408       .  A
C2507      H2511   1.081       .  S
C2508      O2512   1.369       .  S
O2510      H2514   0.992       .  S
O2512      H3629   0.992       .  S
H2513      O3628   0.992   1_545  S
C2515      C2516   1.401       .  A
C2515      C2520   1.411       .  A
C2516      C2517   1.404       .  A
C2516      H2521   1.084       .  S
C2517      C2518   1.412       .  A
C2517      O2522   1.371       .  S
C2518      C2519   1.401       .  A
C2519      C2520   1.404       .  A
C2519      H2523   1.083       .  S
C2520      O2524   1.372       .  S
O2522      H2526   0.987       .  S
O2524      H2525   0.992       .  S
C2527      C2528   1.399       .  A
C2527      C2532   1.416       .  A
C2528      C2529   1.396       .  A
C2528      H2533   1.084       .  S
C2529      C2530   1.411       .  A
C2529      O2534   1.361       .  S
C2530      C2531   1.405       .  A
C2531      C2532   1.406       .  A
C2531      H2535   1.083       .  S
C2532      O2536   1.370       .  S
O2534      H2538   0.985       .  S
O2536      H2537   0.992       .  S
C2539      C2540   1.406       .  A
C2539      C2544   1.412       .  A
C2540      C2541   1.405       .  A
C2540      H2545   1.083       .  S
C2541      C2542   1.415       .  A
C2541      O2546   1.371       .  S
C2542      C2543   1.402       .  A
C2543      C2544   1.401       .  A
C2543      H2547   1.079       .  S
C2544      O2548   1.369       .  S
O2546      H2550   0.992       .  S
O2548      H2549   0.991       .  S
C2551      C2552   1.399       .  A
C2551      C2556   1.416       .  A
C2552      C2553   1.398       .  A
C2552      H2557   1.084       .  S
C2553      C2554   1.408       .  A
C2553      O2558   1.362       .  S
C2554      C2555   1.402       .  A
C2555      C2556   1.405       .  A
C2555      H2559   1.083       .  S
C2556      O2560   1.372       .  S
O2558      H2562   0.988       .  S
O2560      H2561   0.992       .  S
C2563      C2564   1.404       .  A
C2563      C2568   1.411       .  A
C2564      C2565   1.402       .  A
C2564      H2569   1.080       .  S
C2565      C2566   1.408       .  A
C2565      O2570   1.367       .  S
C2566      C2567   1.408       .  A
C2567      C2568   1.405       .  A
C2567      H2571   1.083       .  S
C2568      O2572   1.371       .  S
O2570      H2574   0.988       .  S
O2572      H2573   0.992       .  S
C2575      C2576   1.405       .  A
C2575      C2580   1.410       .  A
C2576      C2577   1.405       .  A
C2576      H2581   1.082       .  S
C2577      C2578   1.408       .  A
C2577      O2582   1.368       .  S
C2578      C2579   1.405       .  A
C2579      C2580   1.405       .  A
C2579      H2583   1.084       .  S
C2580      O2584   1.371       .  S
O2582      H3702   0.990       .  S
O2584      H2585   0.992       .  S
H2586      O3698   0.990       .  S
C2587      C2588   1.402       .  A
C2587      C2592   1.413       .  A
C2588      C2589   1.404       .  A
C2588      H2593   1.084       .  S
C2589      C2590   1.407       .  A
C2589      O2594   1.367       .  S
C2590      C2591   1.402       .  A
C2591      C2592   1.406       .  A
C2591      H2595   1.083       .  S
C2592      O2596   1.372       .  S
O2594      H3714   0.992       .  S
O2596      H2597   0.992       .  S
H2598      O3710   0.992       .  S
C2599      C2600   1.395       .  A
C2599      C2604   1.419       .  A
C2600      C2601   1.401       .  A
C2600      H2605   1.083       .  S
C2601      C2602   1.418       .  A
C2601      O2606   1.373       .  S
C2602      C2603   1.394       .  A
C2603      C2604   1.398       .  A
C2603      H2607   1.084       .  S
C2604      O2608   1.372       .  S
O2606      H2610   0.992       .  S
O2608      H2609   0.992       .  S
C2611      C2612   1.415       .  A
C2611      C2616   1.403       .  A
C2612      C2613   1.396       .  A
C2612      H2617   1.083       .  S
C2613      C2614   1.395       .  A
C2613      O2618   1.371       .  S
C2614      C2615   1.411       .  A
C2615      C2616   1.404       .  A
C2615      H2619   1.084       .  S
C2616      O2620   1.371       .  S
O2618      H2622   0.992       .  S
O2620      H2621   0.992       .  S
C2623      C2624   1.403       .  A
C2623      C2628   1.409       .  A
C2624      C2625   1.389       .  A
C2624      H2629   1.079       .  S
C2625      C2626   1.400       .  A
C2625      O2630   1.372       .  S
C2626      C2627   1.409       .  A
C2627      C2628   1.410       .  A
C2627      H2631   1.084       .  S
C2628      O2632   1.371       .  S
O2630      H2634   0.992       .  S
O2632      H2633   0.992       .  S
C2635      C2636   1.406       .  A
C2635      C2640   1.402       .  A
C2636      C2637   1.407       .  A
C2636      H2641   1.084       .  S
C2637      C2638   1.409       .  A
C2637      O2642   1.371       .  S
C2638      C2639   1.403       .  A
C2639      C2640   1.390       .  A
C2639      H2643   1.085       .  S
C2640      O2644   1.371       .  S
O2642      H2646   0.992       .  S
O2644      H2645   0.992       .  S
C2647      C2648   1.401       .  A
C2647      C2652   1.416       .  A
C2648      C2649   1.404       .  A
C2648      H2653   1.083       .  S
C2649      C2650   1.409       .  A
C2649      O2654   1.368       .  S
C2650      C2651   1.398       .  A
C2651      C2652   1.401       .  A
C2651      H2655   1.084       .  S
C2652      O2656   1.369       .  S
O2654      H2658   0.992       .  S
O2656      H2657   0.991       .  S
C2659      C2660   1.399       .  A
C2659      C2664   1.414       .  A
C2660      C2661   1.399       .  A
C2660      H2665   1.084       .  S
C2661      C2662   1.408       .  A
C2661      O2666   1.369       .  S
C2662      C2663   1.400       .  A
C2663      C2664   1.404       .  A
C2663      H2667   1.083       .  S
C2664      O2668   1.371       .  S
O2666      H2670   0.992       .  S
O2668      H2669   0.992       .  S
C2671      C2672   1.407       .  A
C2671      C2676   1.413       .  A
C2672      C2673   1.400       .  A
C2672      H2677   1.083       .  S
C2673      C2674   1.408       .  A
C2673      O2678   1.373       .  S
C2674      C2675   1.404       .  A
C2675      C2676   1.408       .  A
C2675      H2679   1.081       .  S
C2676      O2680   1.368       .  S
O2678      H2682   0.992       .  S
O2680      H2681   0.990       .  S
C2683      C2684   1.411       .  A
C2683      C2688   1.415       .  A
C2684      C2685   1.413       .  A
C2684      H2689   1.083       .  S
C2685      C2686   1.412       .  A
C2685      O2690   1.373       .  S
C2686      C2687   1.400       .  A
C2687      C2688   1.395       .  A
C2687      H2691   1.085       .  S
C2688      O2692   1.372       .  S
O2690      H2694   0.989       .  S
O2692      H2693   0.992       .  S
C2695      C2696   1.394       .  A
C2695      C2700   1.421       .  A
C2696      C2697   1.400       .  A
C2696      H2701   1.083       .  S
C2697      C2698   1.417       .  A
C2697      O2702   1.373       .  S
C2698      C2699   1.391       .  A
C2699      C2700   1.395       .  A
C2699      H2703   1.084       .  S
C2700      O2704   1.372       .  S
O2702      H2706   0.992       .  S
O2704      H2705   0.991       .  S
C2707      C2708   1.388       .  A
C2707      C2712   1.413       .  A
C2708      C2709   1.394       .  A
C2708      H2713   1.084       .  S
C2709      C2710   1.424       .  A
C2709      O2714   1.372       .  S
C2710      C2711   1.398       .  A
C2711      C2712   1.402       .  A
C2711      H2715   1.083       .  S
C2712      O2716   1.373       .  S
O2714      H2718   0.992       .  S
O2716      H2717   0.992       .  S
C2719      C2720   1.407       .  A
C2719      C2724   1.409       .  A
C2720      C2721   1.389       .  A
C2720      H2725   1.084       .  S
C2721      C2722   1.398       .  A
C2721      O2726   1.371       .  S
C2722      C2723   1.409       .  A
C2723      C2724   1.409       .  A
C2723      H2727   1.084       .  S
C2724      O2728   1.371       .  S
O2726      H2730   0.992       .  S
O2728      H2729   0.992       .  S
C2731      C2732   1.394       .  A
C2731      C2736   1.418       .  A
C2732      C2733   1.400       .  A
C2732      H2737   1.084       .  S
C2733      C2734   1.418       .  A
C2733      O2738   1.373       .  S
C2734      C2735   1.394       .  A
C2735      C2736   1.400       .  A
C2735      H2739   1.084       .  S
C2736      O2740   1.373       .  S
O2738      H2742   0.992       .  S
O2740      H2741   0.992       .  S
C2743      C2744   1.408       .  A
C2743      C2748   1.415       .  A
C2744      C2745   1.410       .  A
C2744      H2749   1.079       .  S
C2745      C2746   1.407       .  A
C2745      O2750   1.369       .  S
C2746      C2747   1.401       .  A
C2747      C2748   1.397       .  A
C2747      H2751   1.085       .  S
C2748      O2752   1.372       .  S
O2750      H2754   0.992       .  S
O2752      H2753   0.992       .  S
C2755      C2756   1.411       .  A
C2755      C2760   1.414       .  A
C2756      C2757   1.414       .  A
C2756      H2761   1.083       .  S
C2757      C2758   1.411       .  A
C2757      O2762   1.371       .  S
C2758      C2759   1.401       .  A
C2759      C2760   1.395       .  A
C2759      H2763   1.084       .  S
C2760      O2764   1.371       .  S
O2762      H2766   0.991       .  S
O2764      H2765   0.991       .  S
C2767      C2768   1.401       .  A
C2767      C2772   1.408       .  A
C2768      C2769   1.401       .  A
C2768      H2773   1.084       .  S
C2769      C2770   1.416       .  A
C2769      O2774   1.372       .  S
C2770      C2771   1.402       .  A
C2771      C2772   1.402       .  A
C2771      H2775   1.077       .  S
C2772      O2776   1.370       .  S
O2774      H2778   0.992       .  S
O2776      H2777   0.992       .  S
C2779      C2780   1.394       .  A
C2779      C2784   1.413       .  A
C2780      C2781   1.398       .  A
C2780      H2785   1.084       .  S
C2781      C2782   1.416       .  A
C2781      O2786   1.372       .  S
C2782      C2783   1.400       .  A
C2783      C2784   1.406       .  A
C2783      H2787   1.083       .  S
C2784      O2788   1.371       .  S
O2786      H2790   0.992       .  S
O2788      H2789   0.992       .  S
N2791      N2792   1.329       .  A
N2791      N2797   1.321       .  A
N2792      C2799   1.358       .  A
N2793      N2795   1.320       .  A
N2793      N2794   1.306       .  A
N2794      C2800   1.334       .  A
N2795      N2796   1.331       .  A
N2795     Mn2820   2.242   1_556  S
N2796      C2800   1.363       .  A
N2797      N2798   1.311       .  A
N2797     Mn2809   2.168       .  S
N2798      C2799   1.338       .  A
C2799      C3292   1.475       .  S
C2800      C3268   1.481       .  S
N2801      N2807   1.311       .  A
N2801      N2802   1.327       .  A
N2802      C2810   1.357       .  A
N2803      N2804   1.319       .  A
N2803      N2805   1.312       .  A
N2803     Mn2809   2.176       .  S
N2804      C2811   1.348       .  A
N2805      N2806   1.324       .  A
N2805     Mn2831   2.207       .  S
N2806      C2811   1.352       .  A
N2807      N2808   1.317       .  A
N2808      C2810   1.346       .  A
Mn2809    Cl2833   2.450       .  S
C2810      C3328   1.490       .  S
C2811      C3337   1.473       .  S
N2812      N2813   1.330       .  A
N2812      N2818   1.322       .  A
N2812     Mn2820   2.239   1_556  S
N2813      C2821   1.360       .  A
N2814      N2816   1.320       .  A
N2814      N2815   1.310       .  A
N2815      C2822   1.337       .  A
N2816      N2817   1.329       .  A
N2817      C2822   1.358       .  A
N2818      N2819   1.307       .  A
N2818     Mn2832   2.160   1_556  S
N2819      C2821   1.335       .  A
C2821      C3253   1.473       .  S
C2822      C3280   1.461       .  S
N2823      N2824   1.330       .  A
N2823      N2829   1.312       .  A
N2823     Mn2831   2.226       .  S
N2824      C2834   1.358       .  A
N2825      N2826   1.316       .  A
N2825      N2827   1.311       .  A
N2825     Mn2832   2.165   1_556  S
N2826      C2835   1.345       .  A
N2827      N2828   1.330       .  A
N2828      C2835   1.359       .  A
N2829      N2830   1.317       .  A
N2830      C2834   1.347       .  A
Mn2831    Cl2833   2.593       .  S
C2834      C3313   1.497       .  S
C2835      C3301   1.494       .  S
N2836      N2837   1.329       .  A
N2836      N2842   1.312       .  A
N2836     Mn2865   2.224       .  S
N2837      C2844   1.357       .  A
N2838      N2840   1.311       .  A
N2838      N2839   1.318       .  A
N2839      C2845   1.346       .  A
N2840      N2841   1.327       .  A
N2841      C2845   1.357       .  A
N2842      N2843   1.317       .  A
N2842     Mn2854   2.177       .  S
N2843      C2844   1.348       .  A
C2844      C3241   1.496       .  S
C2845      C3229   1.495       .  S
N2846      N2852   1.319       .  A
N2846      N2847   1.331       .  A
N2847      C2855   1.363       .  A
N2848      N2849   1.311       .  A
N2848      N2850   1.322       .  A
N2848     Mn2854   2.167       .  S
N2849      C2856   1.338       .  A
N2850      N2851   1.329       .  A
N2850     Mn2876   2.239       .  S
N2851      C2856   1.359       .  A
N2852      N2853   1.306       .  A
N2853      C2855   1.335       .  A
Mn2854    Cl2878   2.464       .  S
C2855      C3196   1.467       .  S
C2856      C3172   1.468       .  S
N2857      N2858   1.327       .  A
N2857      N2863   1.311       .  A
N2858      C2866   1.356       .  A
N2859      N2861   1.312       .  A
N2859      N2860   1.320       .  A
N2859     Mn2877   2.181       .  S
N2860      C2867   1.349       .  A
N2861      N2862   1.323       .  A
N2861     Mn2865   2.204       .  S
N2862      C2867   1.352       .  A
N2863      N2864   1.318       .  A
N2864      C2866   1.347       .  A
Mn2865    Cl2878   2.596       .  S
C2866      C3205   1.489       .  S
C2867      C3217   1.479       .  S
N2868      N2869   1.329       .  A
N2868      N2874   1.322       .  A
N2868     Mn2876   2.236       .  S
N2869      C2879   1.359       .  A
N2870      N2871   1.307       .  A
N2870      N2872   1.319       .  A
N2871      C2880   1.336       .  A
N2872      N2873   1.332       .  A
N2873      C2880   1.363       .  A
N2874      N2875   1.311       .  A
N2874     Mn2877   2.170       .  S
N2875      C2879   1.338       .  A
Mn2876    Cl2878   2.599       .  S
Mn2877    Cl2878   2.456       .  S
C2879      C3160   1.475       .  S
C2880      C3181   1.474       .  S
N2881      N2882   1.329       .  A
N2881      N2887   1.322       .  A
N2881     Mn2910   2.234       .  S
N2882      C2889   1.359       .  A
N2883      N2885   1.322       .  A
N2883      N2884   1.308       .  A
N2883     Mn2899   2.164       .  S
N2884      C2890   1.337       .  A
N2885      N2886   1.332       .  A
N2885     Mn2910   2.251       .  S
N2886      C2890   1.363       .  A
N2887      N2888   1.310       .  A
N2887     Mn2899   2.169       .  S
N2888      C2889   1.338       .  A
C2889      C3289   1.474       .  S
C2890      C3169   1.483       .  S
N2891      N2897   1.312       .  A
N2891      N2892   1.326       .  A
N2891     Mn4037   2.220       .  S
N2892      C2900   1.356       .  A
N2893      N2894   1.321       .  A
N2893      N2895   1.313       .  A
N2893     Mn2899   2.182       .  S
N2894      C2901   1.348       .  A
N2895      N2896   1.326       .  A
N2895     Mn4037   2.225       .  S
N2896      C2901   1.357       .  A
N2897      N2898   1.321       .  A
N2897     Mn2899   2.181       .  S
N2898      C2900   1.348       .  A
Mn2899    Cl4039   2.471       .  S
C2900      C3133   1.485       .  S
C2901      C3148   1.484       .  S
N2902      N2903   1.330       .  A
N2902      N2908   1.321       .  A
N2902     Mn4026   2.235       .  S
N2903      C2911   1.360       .  A
N2904      N2906   1.319       .  A
N2904      N2905   1.305       .  A
N2904     Mn2922   2.150       .  S
N2905      C2912   1.335       .  A
N2906      N2907   1.333       .  A
N2906     Mn4026   2.249       .  S
N2907      C2912   1.365       .  A
N2908      N2909   1.310       .  A
N2908     Mn2922   2.170       .  S
N2909      C2911   1.338       .  A
Mn2910     N4018   2.235   1_545  S
Mn2910     N4022   2.249   1_545  S
Mn2910    Cl4039   2.611       .  S
C2911      C3157   1.477       .  S
C2912      C3277   1.476       .  S
N2913      N2914   1.324       .  A
N2913      N2919   1.310       .  A
N2913     Mn2921   2.211       .  S
N2914      C2924   1.358       .  A
N2915      N2916   1.319       .  A
N2915      N2917   1.312       .  A
N2915     Mn2922   2.176       .  S
N2916      C2925   1.348       .  A
N2917      N2918   1.324       .  A
N2917     Mn2921   2.213       .  S
N2918      C2925   1.356       .  A
N2919      N2920   1.321       .  A
N2919     Mn2922   2.184       .  S
N2920      C2924   1.350       .  A
Mn2921     N4007   2.220       .  S
Mn2921     N4011   2.225       .  S
Mn2921    Cl2923   2.577       .  S
Mn2922    Cl2923   2.459       .  S
Cl2923    Mn4015   2.471       .  S
Cl2923    Mn4026   2.611       .  S
C2924      C3124   1.493       .  S
C2925      C3109   1.483       .  S
N2926      N2927   1.324       .  A
N2926      N2932   1.313       .  A
N2926     Mn2955   2.220       .  S
N2927      C2934   1.358       .  A
N2928      N2930   1.311       .  A
N2928      N2929   1.320       .  A
N2928     Mn2944   2.179       .  S
N2929      C2935   1.349       .  A
N2930      N2931   1.323       .  A
N2930     Mn2955   2.205       .  S
N2931      C2935   1.357       .  A
N2932      N2933   1.321       .  A
N2932     Mn2944   2.188       .  S
N2933      C2934   1.351       .  A
C2934      C3100   1.493       .  S
C2935      C3085   1.487       .  S
N2936      N2942   1.319       .  A
N2936      N2937   1.329       .  A
N2936     Mn2966   2.236       .  S
N2937      C2945   1.360       .  A
N2938      N2939   1.311       .  A
N2938      N2940   1.321       .  A
N2938     Mn2944   2.164       .  S
N2939      C2946   1.338       .  A
N2940      N2941   1.327       .  A
N2940     Mn2966   2.226       .  S
N2941      C2946   1.356       .  A
N2942      N2943   1.308       .  A
N2942     Mn2944   2.159       .  S
N2943      C2945   1.337       .  A
Mn2944    Cl2968   2.477       .  S
C2945      C3193   1.462       .  S
C2946      C3265   1.463       .  S
N2947      N2948   1.329       .  A
N2947      N2953   1.313       .  A
N2947     Mn4071   2.232       .  S
N2948      C2956   1.359       .  A
N2949      N2951   1.313       .  A
N2949      N2950   1.322       .  A
N2949     Mn2967   2.179       .  S
N2950      C2957   1.348       .  A
N2951      N2952   1.324       .  A
N2951     Mn4071   2.223       .  S
N2952      C2957   1.356       .  A
N2953      N2954   1.320       .  A
N2953     Mn2967   2.180       .  S
N2954      C2956   1.346       .  A
Mn2955     N4063   2.232   1_545  S
Mn2955     N4067   2.223   1_545  S
Mn2955    Cl2968   2.569       .  S
C2956      C3064   1.490       .  S
C2957      C3076   1.481       .  S
N2958      N2959   1.328       .  A
N2958      N2964   1.322       .  A
N2958     Mn4082   2.228       .  S
N2959      C2969   1.357       .  A
N2960      N2961   1.309       .  A
N2960      N2962   1.320       .  A
N2960     Mn2967   2.162       .  S
N2961      C2970   1.336       .  A
N2962      N2963   1.329       .  A
N2962     Mn4082   2.231       .  S
N2963      C2970   1.359       .  A
N2964      N2965   1.310       .  A
N2964     Mn2967   2.166       .  S
N2965      C2969   1.337       .  A
Mn2966     N4074   2.228   1_545  S
Mn2966     N4078   2.231   1_545  S
Mn2966    Cl2968   2.597       .  S
Mn2967    Cl4084   2.481       .  S
Cl2968    Mn4083   2.481   1_545  S
C2969      C3256   1.469       .  S
C2970      C3184   1.462       .  S
N2971      N2972   1.330       .  A
N2971      N2977   1.320       .  A
N2972      C2979   1.361       .  A
N2973      N2975   1.320       .  A
N2973      N2974   1.311       .  A
N2974      C2980   1.342       .  A
N2975      N2976   1.332       .  A
N2975     Mn3000   2.237   1_655  S
N2976      C2980   1.362       .  A
N2977      N2978   1.311       .  A
N2977     Mn2989   2.173       .  S
N2978      C2979   1.339       .  A
C2979      C3340   1.476       .  S
C2980      C3244   1.479       .  S
N2981      N2987   1.312       .  A
N2981      N2982   1.322       .  A
N2982      C2990   1.356       .  A
N2983      N2984   1.322       .  A
N2983      N2985   1.313       .  A
N2983     Mn2989   2.199       .  S
N2984      C2991   1.351       .  A
N2985      N2986   1.324       .  A
N2985     Mn3011   2.207       .  S
N2986      C2991   1.354       .  A
N2987      N2988   1.323       .  A
N2988      C2990   1.351       .  A
Mn2989    Cl3013   2.463       .  S
C2990      C3136   1.488       .  S
C2991      C3145   1.485       .  S
N2992      N2993   1.332       .  A
N2992      N2998   1.319       .  A
N2992     Mn3000   2.252   1_655  S
N2993      C3001   1.364       .  A
N2994      N2996   1.320       .  A
N2994      N2995   1.313       .  A
N2994     Mn3012   2.182       .  S
N2995      C3002   1.342       .  A
N2996      N2997   1.328       .  A
N2997      C3002   1.361       .  A
N2998      N2999   1.312       .  A
N2999      C3001   1.341       .  A
C3001      C3232   1.481       .  S
C3002      C3325   1.473       .  S
N3003      N3004   1.322       .  A
N3003      N3009   1.312       .  A
N3003     Mn3011   2.205       .  S
N3004      C3014   1.354       .  A
N3005      N3006   1.323       .  A
N3005      N3007   1.314       .  A
N3006      C3015   1.352       .  A
N3007      N3008   1.321       .  A
N3008      C3015   1.355       .  A
N3009      N3010   1.322       .  A
N3009     Mn3012   2.196       .  S
N3010      C3014   1.353       .  A
Mn3011    Cl3013   2.591       .  S
Mn3012    Cl3013   2.477       .  S
C3014      C3097   1.492       .  S
C3015      C3088   1.495       .  S
N3016      N3017   1.323       .  A
N3016      N3022   1.314       .  A
N3017      C3024   1.354       .  A
N3018      N3020   1.313       .  A
N3018      N3019   1.322       .  A
N3018     Mn3034   2.187       .  S
N3019      C3025   1.350       .  A
N3020      N3021   1.321       .  A
N3020     Mn3045   2.206       .  S
N3021      C3025   1.355       .  A
N3022      N3023   1.322       .  A
N3023      C3024   1.351       .  A
C3024      C3121   1.491       .  S
C3025      C3112   1.487       .  S
N3026      N3032   1.320       .  A
N3026      N3027   1.328       .  A
N3026     Mn3056   2.240   1_655  S
N3027      C3035   1.361       .  A
N3028      N3029   1.311       .  A
N3028      N3030   1.319       .  A
N3029      C3036   1.342       .  A
N3030      N3031   1.334       .  A
N3031      C3036   1.364       .  A
N3032      N3033   1.313       .  A
N3032     Mn3034   2.182       .  S
N3033      C3035   1.342       .  A
Mn3034    Cl3058   2.476       .  S
C3035      C3220   1.471       .  S
C3036      C3316   1.486       .  S
N3037      N3038   1.324       .  A
N3037      N3043   1.312       .  A
N3037     Mn3045   2.218       .  S
N3038      C3046   1.357       .  A
N3039      N3041   1.312       .  A
N3039      N3040   1.322       .  A
N3040      C3047   1.350       .  A
N3041      N3042   1.324       .  A
N3042      C3047   1.353       .  A
N3043      N3044   1.323       .  A
N3043     Mn3057   2.198   1_655  S
N3044      C3046   1.352       .  A
Mn3045    Cl3058   2.588       .  S
C3046      C3061   1.489       .  S
C3047      C3073   1.479       .  S
N3048      N3049   1.332       .  A
N3048      N3054   1.319       .  A
N3049      C3059   1.364       .  A
N3050      N3051   1.312       .  A
N3050      N3052   1.319       .  A
N3050     Mn3057   2.174   1_655  S
N3051      C3060   1.340       .  A
N3052      N3053   1.329       .  A
N3052     Mn3056   2.243   1_655  S
N3053      C3060   1.361       .  A
N3054      N3055   1.309       .  A
N3055      C3059   1.341       .  A
Mn3056    Cl3058   2.616   1_455  S
Mn3057    Cl3058   2.468   1_455  S
C3059      C3304   1.478       .  S
C3060      C3208   1.472       .  S
C3061      C3062   1.406       .  A
C3061      C3066   1.407       .  A
C3062      C3063   1.406       .  A
C3062      H3067   1.084       .  S
C3063      C3064   1.411       .  A
C3063      O3068   1.371       .  S
C3064      C3065   1.405       .  A
C3065      C3066   1.408       .  A
C3065      H3069   1.081       .  S
C3066      O3070   1.369       .  S
O3068      H3072   0.992       .  S
O3070      H4187   0.992       .  S
H3071      O4186   0.992   1_545  S
C3073      C3074   1.401       .  A
C3073      C3078   1.411       .  A
C3074      C3075   1.404       .  A
C3074      H3079   1.084       .  S
C3075      C3076   1.412       .  A
C3075      O3080   1.371       .  S
C3076      C3077   1.401       .  A
C3077      C3078   1.404       .  A
C3077      H3081   1.083       .  S
C3078      O3082   1.372       .  S
O3080      H3084   0.987       .  S
O3082      H3083   0.992       .  S
C3085      C3086   1.399       .  A
C3085      C3090   1.416       .  A
C3086      C3087   1.396       .  A
C3086      H3091   1.084       .  S
C3087      C3088   1.411       .  A
C3087      O3092   1.361       .  S
C3088      C3089   1.405       .  A
C3089      C3090   1.406       .  A
C3089      H3093   1.083       .  S
C3090      O3094   1.370       .  S
O3092      H3096   0.985       .  S
O3094      H3095   0.992       .  S
C3097      C3098   1.406       .  A
C3097      C3102   1.412       .  A
C3098      C3099   1.405       .  A
C3098      H3103   1.083       .  S
C3099      C3100   1.415       .  A
C3099      O3104   1.371       .  S
C3100      C3101   1.402       .  A
C3101      C3102   1.401       .  A
C3101      H3105   1.079       .  S
C3102      O3106   1.369       .  S
O3104      H3108   0.992       .  S
O3106      H3107   0.991       .  S
C3109      C3110   1.399       .  A
C3109      C3114   1.416       .  A
C3110      C3111   1.398       .  A
C3110      H3115   1.084       .  S
C3111      C3112   1.408       .  A
C3111      O3116   1.362       .  S
C3112      C3113   1.402       .  A
C3113      C3114   1.405       .  A
C3113      H3117   1.083       .  S
C3114      O3118   1.372       .  S
O3116      H3120   0.988       .  S
O3118      H3119   0.992       .  S
C3121      C3122   1.404       .  A
C3121      C3126   1.411       .  A
C3122      C3123   1.402       .  A
C3122      H3127   1.080       .  S
C3123      C3124   1.408       .  A
C3123      O3128   1.367       .  S
C3124      C3125   1.408       .  A
C3125      C3126   1.405       .  A
C3125      H3129   1.083       .  S
C3126      O3130   1.371       .  S
O3128      H3132   0.988       .  S
O3130      H3131   0.992       .  S
C3133      C3134   1.405       .  A
C3133      C3138   1.410       .  A
C3134      C3135   1.405       .  A
C3134      H3139   1.082       .  S
C3135      C3136   1.408       .  A
C3135      O3140   1.368       .  S
C3136      C3137   1.405       .  A
C3137      C3138   1.405       .  A
C3137      H3141   1.084       .  S
C3138      O3142   1.371       .  S
O3140      H4260   0.990       .  S
O3142      H3143   0.992       .  S
H3144      O4256   0.990       .  S
C3145      C3146   1.402       .  A
C3145      C3150   1.413       .  A
C3146      C3147   1.404       .  A
C3146      H3151   1.084       .  S
C3147      C3148   1.407       .  A
C3147      O3152   1.367       .  S
C3148      C3149   1.402       .  A
C3149      C3150   1.406       .  A
C3149      H3153   1.083       .  S
C3150      O3154   1.372       .  S
O3152      H4272   0.992       .  S
O3154      H3155   0.992       .  S
H3156      O4268   0.992       .  S
C3157      C3158   1.395       .  A
C3157      C3162   1.419       .  A
C3158      C3159   1.401       .  A
C3158      H3163   1.083       .  S
C3159      C3160   1.418       .  A
C3159      O3164   1.373       .  S
C3160      C3161   1.394       .  A
C3161      C3162   1.398       .  A
C3161      H3165   1.084       .  S
C3162      O3166   1.372       .  S
O3164      H3168   0.992       .  S
O3166      H3167   0.992       .  S
C3169      C3170   1.415       .  A
C3169      C3174   1.403       .  A
C3170      C3171   1.396       .  A
C3170      H3175   1.083       .  S
C3171      C3172   1.395       .  A
C3171      O3176   1.371       .  S
C3172      C3173   1.411       .  A
C3173      C3174   1.404       .  A
C3173      H3177   1.084       .  S
C3174      O3178   1.371       .  S
O3176      H3180   0.992       .  S
O3178      H3179   0.992       .  S
C3181      C3182   1.403       .  A
C3181      C3186   1.409       .  A
C3182      C3183   1.389       .  A
C3182      H3187   1.079       .  S
C3183      C3184   1.400       .  A
C3183      O3188   1.372       .  S
C3184      C3185   1.409       .  A
C3185      C3186   1.410       .  A
C3185      H3189   1.084       .  S
C3186      O3190   1.371       .  S
O3188      H3192   0.992       .  S
O3190      H3191   0.992       .  S
C3193      C3194   1.406       .  A
C3193      C3198   1.402       .  A
C3194      C3195   1.407       .  A
C3194      H3199   1.084       .  S
C3195      C3196   1.409       .  A
C3195      O3200   1.371       .  S
C3196      C3197   1.403       .  A
C3197      C3198   1.390       .  A
C3197      H3201   1.085       .  S
C3198      O3202   1.371       .  S
O3200      H3204   0.992       .  S
O3202      H3203   0.992       .  S
C3205      C3206   1.401       .  A
C3205      C3210   1.416       .  A
C3206      C3207   1.404       .  A
C3206      H3211   1.083       .  S
C3207      C3208   1.409       .  A
C3207      O3212   1.368       .  S
C3208      C3209   1.398       .  A
C3209      C3210   1.401       .  A
C3209      H3213   1.084       .  S
C3210      O3214   1.369       .  S
O3212      H3216   0.992       .  S
O3214      H3215   0.991       .  S
C3217      C3218   1.399       .  A
C3217      C3222   1.414       .  A
C3218      C3219   1.399       .  A
C3218      H3223   1.084       .  S
C3219      C3220   1.408       .  A
C3219      O3224   1.369       .  S
C3220      C3221   1.400       .  A
C3221      C3222   1.404       .  A
C3221      H3225   1.083       .  S
C3222      O3226   1.371       .  S
O3224      H3228   0.992       .  S
O3226      H3227   0.992       .  S
C3229      C3230   1.407       .  A
C3229      C3234   1.413       .  A
C3230      C3231   1.400       .  A
C3230      H3235   1.083       .  S
C3231      C3232   1.408       .  A
C3231      O3236   1.373       .  S
C3232      C3233   1.404       .  A
C3233      C3234   1.408       .  A
C3233      H3237   1.081       .  S
C3234      O3238   1.368       .  S
O3236      H3240   0.992       .  S
O3238      H3239   0.990       .  S
C3241      C3242   1.411       .  A
C3241      C3246   1.415       .  A
C3242      C3243   1.413       .  A
C3242      H3247   1.083       .  S
C3243      C3244   1.412       .  A
C3243      O3248   1.373       .  S
C3244      C3245   1.400       .  A
C3245      C3246   1.395       .  A
C3245      H3249   1.085       .  S
C3246      O3250   1.372       .  S
O3248      H3252   0.989       .  S
O3250      H3251   0.992       .  S
C3253      C3254   1.394       .  A
C3253      C3258   1.421       .  A
C3254      C3255   1.400       .  A
C3254      H3259   1.083       .  S
C3255      C3256   1.417       .  A
C3255      O3260   1.373       .  S
C3256      C3257   1.391       .  A
C3257      C3258   1.395       .  A
C3257      H3261   1.084       .  S
C3258      O3262   1.372       .  S
O3260      H3264   0.992       .  S
O3262      H3263   0.991       .  S
C3265      C3266   1.388       .  A
C3265      C3270   1.413       .  A
C3266      C3267   1.394       .  A
C3266      H3271   1.084       .  S
C3267      C3268   1.424       .  A
C3267      O3272   1.372       .  S
C3268      C3269   1.398       .  A
C3269      C3270   1.402       .  A
C3269      H3273   1.083       .  S
C3270      O3274   1.373       .  S
O3272      H3276   0.992       .  S
O3274      H3275   0.992       .  S
C3277      C3278   1.407       .  A
C3277      C3282   1.409       .  A
C3278      C3279   1.389       .  A
C3278      H3283   1.084       .  S
C3279      C3280   1.398       .  A
C3279      O3284   1.371       .  S
C3280      C3281   1.409       .  A
C3281      C3282   1.409       .  A
C3281      H3285   1.084       .  S
C3282      O3286   1.371       .  S
O3284      H3288   0.992       .  S
O3286      H3287   0.992       .  S
C3289      C3290   1.394       .  A
C3289      C3294   1.418       .  A
C3290      C3291   1.400       .  A
C3290      H3295   1.084       .  S
C3291      C3292   1.418       .  A
C3291      O3296   1.373       .  S
C3292      C3293   1.394       .  A
C3293      C3294   1.400       .  A
C3293      H3297   1.084       .  S
C3294      O3298   1.373       .  S
O3296      H3300   0.992       .  S
O3298      H3299   0.992       .  S
C3301      C3302   1.408       .  A
C3301      C3306   1.415       .  A
C3302      C3303   1.410       .  A
C3302      H3307   1.079       .  S
C3303      C3304   1.407       .  A
C3303      O3308   1.369       .  S
C3304      C3305   1.401       .  A
C3305      C3306   1.397       .  A
C3305      H3309   1.085       .  S
C3306      O3310   1.372       .  S
O3308      H3312   0.992       .  S
O3310      H3311   0.992       .  S
C3313      C3314   1.411       .  A
C3313      C3318   1.414       .  A
C3314      C3315   1.414       .  A
C3314      H3319   1.083       .  S
C3315      C3316   1.411       .  A
C3315      O3320   1.371       .  S
C3316      C3317   1.401       .  A
C3317      C3318   1.395       .  A
C3317      H3321   1.084       .  S
C3318      O3322   1.371       .  S
O3320      H3324   0.991       .  S
O3322      H3323   0.991       .  S
C3325      C3326   1.401       .  A
C3325      C3330   1.408       .  A
C3326      C3327   1.401       .  A
C3326      H3331   1.084       .  S
C3327      C3328   1.416       .  A
C3327      O3332   1.372       .  S
C3328      C3329   1.402       .  A
C3329      C3330   1.402       .  A
C3329      H3333   1.077       .  S
C3330      O3334   1.370       .  S
O3332      H3336   0.992       .  S
O3334      H3335   0.992       .  S
C3337      C3338   1.394       .  A
C3337      C3342   1.413       .  A
C3338      C3339   1.398       .  A
C3338      H3343   1.084       .  S
C3339      C3340   1.416       .  A
C3339      O3344   1.372       .  S
C3340      C3341   1.400       .  A
C3341      C3342   1.406       .  A
C3341      H3345   1.083       .  S
C3342      O3346   1.371       .  S
O3344      H3348   0.992       .  S
O3346      H3347   0.992       .  S
N3349      N3350   1.329       .  A
N3349      N3355   1.321       .  A
N3349     Mn3936   2.231       .  S
N3350      C3357   1.358       .  A
N3351      N3353   1.320       .  A
N3351      N3352   1.306       .  A
N3351     Mn3925   2.157       .  S
N3352      C3358   1.334       .  A
N3353      N3354   1.331       .  A
N3353     Mn3378   2.242       .  S
N3354      C3358   1.363       .  A
N3355      N3356   1.311       .  A
N3355     Mn3367   2.168       .  S
N3356      C3357   1.338       .  A
C3357      C3850   1.475       .  S
C3358      C3826   1.481       .  S
N3359      N3365   1.311       .  A
N3359      N3360   1.327       .  A
N3359     Mn3947   2.208       .  S
N3360      C3368   1.357       .  A
N3361      N3362   1.319       .  A
N3361      N3363   1.312       .  A
N3361     Mn3367   2.176       .  S
N3362      C3369   1.348       .  A
N3363      N3364   1.324       .  A
N3363     Mn3389   2.207       .  S
N3364      C3369   1.352       .  A
N3365      N3366   1.317       .  A
N3365     Mn3925   2.176       .  S
N3366      C3368   1.346       .  A
Mn3367     N3909   2.157   1_554  S
Mn3367     N3923   2.176   1_554  S
Mn3367    Cl3391   2.450       .  S
C3368      C3886   1.490       .  S
C3369      C3895   1.473       .  S
N3370      N3371   1.330       .  A
N3370      N3376   1.322       .  A
N3370     Mn3378   2.239       .  S
N3371      C3379   1.360       .  A
N3372      N3374   1.320       .  A
N3372      N3373   1.310       .  A
N3372     Mn3948   2.166       .  S
N3373      C3380   1.337       .  A
N3374      N3375   1.329       .  A
N3374     Mn3936   2.230       .  S
N3375      C3380   1.358       .  A
N3376      N3377   1.307       .  A
N3376     Mn3390   2.160       .  S
N3377      C3379   1.335       .  A
Mn3378     N3907   2.231       .  S
Mn3378     N3932   2.230       .  S
Mn3378    Cl3949   2.597       .  S
C3379      C3811   1.473       .  S
C3380      C3838   1.461       .  S
N3381      N3382   1.330       .  A
N3381      N3387   1.312       .  A
N3381     Mn3389   2.226       .  S
N3382      C3392   1.358       .  A
N3383      N3384   1.316       .  A
N3383      N3385   1.311       .  A
N3383     Mn3390   2.165       .  S
N3384      C3393   1.345       .  A
N3385      N3386   1.330       .  A
N3385     Mn3947   2.222       .  S
N3386      C3393   1.359       .  A
N3387      N3388   1.317       .  A
N3387     Mn3948   2.173       .  S
N3388      C3392   1.347       .  A
Mn3389     N3917   2.208   1_554  S
Mn3389     N3943   2.222   1_554  S
Mn3389    Cl3391   2.593       .  S
Mn3390     N3930   2.166       .  S
Mn3390     N3945   2.173       .  S
Mn3390    Cl3949   2.457       .  S
Cl3391    Mn3936   2.597       .  S
Cl3391    Mn3948   2.457       .  S
C3392      C3871   1.497       .  S
C3393      C3859   1.494       .  S
N3394      N3395   1.329       .  A
N3394      N3400   1.312       .  A
N3394     Mn3423   2.224       .  S
N3395      C3402   1.357       .  A
N3396      N3398   1.311       .  A
N3396      N3397   1.318       .  A
N3396     Mn3970   2.170       .  S
N3397      C3403   1.346       .  A
N3398      N3399   1.327       .  A
N3398     Mn3981   2.216       .  S
N3399      C3403   1.357       .  A
N3400      N3401   1.317       .  A
N3400     Mn3412   2.177       .  S
N3401      C3402   1.348       .  A
C3402      C3799   1.496       .  S
C3403      C3787   1.495       .  S
N3404      N3410   1.319       .  A
N3404      N3405   1.331       .  A
N3404     Mn3992   2.245       .  S
N3405      C3413   1.363       .  A
N3406      N3407   1.311       .  A
N3406      N3408   1.322       .  A
N3406     Mn3412   2.167       .  S
N3407      C3414   1.338       .  A
N3408      N3409   1.329       .  A
N3408     Mn3434   2.239       .  S
N3409      C3414   1.359       .  A
N3410      N3411   1.306       .  A
N3410     Mn3970   2.152       .  S
N3411      C3413   1.335       .  A
Mn3412     N3954   2.170   1_554  S
Mn3412     N3968   2.152   1_554  S
Mn3412    Cl3436   2.464       .  S
C3413      C3754   1.467       .  S
C3414      C3730   1.468       .  S
N3415      N3416   1.327       .  A
N3415      N3421   1.311       .  A
N3415     Mn3981   2.208       .  S
N3416      C3424   1.356       .  A
N3417      N3419   1.312       .  A
N3417      N3418   1.320       .  A
N3417     Mn3435   2.181       .  S
N3418      C3425   1.349       .  A
N3419      N3420   1.323       .  A
N3419     Mn3423   2.204       .  S
N3420      C3425   1.352       .  A
N3421      N3422   1.318       .  A
N3421     Mn3993   2.182       .  S
N3422      C3424   1.347       .  A
Mn3423     N3956   2.216   1_554  S
Mn3423     N3973   2.208   1_554  S
Mn3423    Cl3436   2.596       .  S
C3424      C3763   1.489       .  S
C3425      C3775   1.479       .  S
N3426      N3427   1.329       .  A
N3426      N3432   1.322       .  A
N3426     Mn3434   2.236       .  S
N3427      C3437   1.359       .  A
N3428      N3429   1.307       .  A
N3428      N3430   1.319       .  A
N3428     Mn3993   2.159       .  S
N3429      C3438   1.336       .  A
N3430      N3431   1.332       .  A
N3430     Mn3992   2.246       .  S
N3431      C3438   1.363       .  A
N3432      N3433   1.311       .  A
N3432     Mn3435   2.170       .  S
N3433      C3437   1.338       .  A
Mn3434     N3962   2.245   1_554  S
Mn3434     N3988   2.246   1_554  S
Mn3434    Cl3436   2.599       .  S
Mn3435     N3979   2.182   1_554  S
Mn3435     N3986   2.159   1_554  S
Mn3435    Cl3436   2.457       .  S
C3437      C3718   1.475       .  S
C3438      C3739   1.474       .  S
N3439      N3440   1.329       .  A
N3439      N3445   1.322       .  A
N3439     Mn3468   2.234       .  S
N3440      C3447   1.359       .  A
N3441      N3443   1.322       .  A
N3441      N3442   1.308       .  A
N3441     Mn3457   2.164       .  S
N3442      C3448   1.337       .  A
N3443      N3444   1.332       .  A
N3443     Mn3468   2.251       .  S
N3444      C3448   1.363       .  A
N3445      N3446   1.310       .  A
N3445     Mn3457   2.169       .  S
N3446      C3447   1.338       .  A
C3447      C3847   1.474       .  S
C3448      C3727   1.483       .  S
N3449      N3455   1.312       .  A
N3449      N3450   1.326       .  A
N3450      C3458   1.356       .  A
N3451      N3452   1.321       .  A
N3451      N3453   1.313       .  A
N3451     Mn3457   2.182       .  S
N3452      C3459   1.348       .  A
N3453      N3454   1.326       .  A
N3454      C3459   1.357       .  A
N3455      N3456   1.321       .  A
N3455     Mn3457   2.181       .  S
N3456      C3458   1.348       .  A
C3458      C3691   1.485       .  S
C3459      C3706   1.484       .  S
N3460      N3461   1.330       .  A
N3460      N3466   1.321       .  A
N3461      C3469   1.360       .  A
N3462      N3464   1.319       .  A
N3462      N3463   1.305       .  A
N3462     Mn3480   2.150       .  S
N3463      C3470   1.335       .  A
N3464      N3465   1.333       .  A
N3465      C3470   1.365       .  A
N3466      N3467   1.310       .  A
N3466     Mn3480   2.170       .  S
N3467      C3469   1.338       .  A
C3469      C3715   1.477       .  S
C3470      C3835   1.476       .  S
N3471      N3472   1.324       .  A
N3471      N3477   1.310       .  A
N3471     Mn3479   2.211   1_565  S
N3472      C3482   1.358       .  A
N3473      N3474   1.319       .  A
N3473      N3475   1.312       .  A
N3473     Mn3480   2.176       .  S
N3474      C3483   1.348       .  A
N3475      N3476   1.324       .  A
N3475     Mn3479   2.213   1_565  S
N3476      C3483   1.356       .  A
N3477      N3478   1.321       .  A
N3477     Mn3480   2.184       .  S
N3478      C3482   1.350       .  A
Mn3479    Cl3481   2.577       .  S
Mn3480    Cl3481   2.459   1_565  S
C3482      C3682   1.493       .  S
C3483      C3667   1.483       .  S
N3484      N3485   1.324       .  A
N3484      N3490   1.313       .  A
N3484     Mn3513   2.220       .  S
N3485      C3492   1.358       .  A
N3486      N3488   1.311       .  A
N3486      N3487   1.320       .  A
N3486     Mn3502   2.179       .  S
N3487      C3493   1.349       .  A
N3488      N3489   1.323       .  A
N3488     Mn3513   2.205       .  S
N3489      C3493   1.357       .  A
N3490      N3491   1.321       .  A
N3490     Mn3502   2.188       .  S
N3491      C3492   1.351       .  A
C3492      C3658   1.493       .  S
C3493      C3643   1.487       .  S
N3494      N3500   1.319       .  A
N3494      N3495   1.329       .  A
N3494     Mn3524   2.236       .  S
N3495      C3503   1.360       .  A
N3496      N3497   1.311       .  A
N3496      N3498   1.321       .  A
N3496     Mn3502   2.164       .  S
N3497      C3504   1.338       .  A
N3498      N3499   1.327       .  A
N3498     Mn3524   2.226       .  S
N3499      C3504   1.356       .  A
N3500      N3501   1.308       .  A
N3500     Mn3502   2.159       .  S
N3501      C3503   1.337       .  A
Mn3502    Cl3526   2.477       .  S
C3503      C3751   1.462       .  S
C3504      C3823   1.463       .  S
N3505      N3506   1.329       .  A
N3505      N3511   1.313       .  A
N3506      C3514   1.359       .  A
N3507      N3509   1.313       .  A
N3507      N3508   1.322       .  A
N3507     Mn3525   2.179       .  S
N3508      C3515   1.348       .  A
N3509      N3510   1.324       .  A
N3510      C3515   1.356       .  A
N3511      N3512   1.320       .  A
N3511     Mn3525   2.180       .  S
N3512      C3514   1.346       .  A
Mn3513    Cl3526   2.569       .  S
C3514      C3622   1.490       .  S
C3515      C3634   1.481       .  S
N3516      N3517   1.328       .  A
N3516      N3522   1.322       .  A
N3517      C3527   1.357       .  A
N3518      N3519   1.309       .  A
N3518      N3520   1.320       .  A
N3518     Mn3525   2.162       .  S
N3519      C3528   1.336       .  A
N3520      N3521   1.329       .  A
N3521      C3528   1.359       .  A
N3522      N3523   1.310       .  A
N3522     Mn3525   2.166       .  S
N3523      C3527   1.337       .  A
Mn3524    Cl3526   2.597       .  S
C3527      C3814   1.469       .  S
C3528      C3742   1.462       .  S
N3529      N3530   1.330       .  A
N3529      N3535   1.320       .  A
N3530      C3537   1.361       .  A
N3531      N3533   1.320       .  A
N3531      N3532   1.311       .  A
N3532      C3538   1.342       .  A
N3533      N3534   1.332       .  A
N3533     Mn3558   2.237   1_655  S
N3534      C3538   1.362       .  A
N3535      N3536   1.311       .  A
N3535     Mn3547   2.173       .  S
N3536      C3537   1.339       .  A
C3537      C3898   1.476       .  S
C3538      C3802   1.479       .  S
N3539      N3545   1.312       .  A
N3539      N3540   1.322       .  A
N3540      C3548   1.356       .  A
N3541      N3542   1.322       .  A
N3541      N3543   1.313       .  A
N3541     Mn3547   2.199       .  S
N3542      C3549   1.351       .  A
N3543      N3544   1.324       .  A
N3543     Mn3569   2.207       .  S
N3544      C3549   1.354       .  A
N3545      N3546   1.323       .  A
N3546      C3548   1.351       .  A
Mn3547    Cl3571   2.463       .  S
C3548      C3694   1.488       .  S
C3549      C3703   1.485       .  S
N3550      N3551   1.332       .  A
N3550      N3556   1.319       .  A
N3550     Mn3558   2.252   1_655  S
N3551      C3559   1.364       .  A
N3552      N3554   1.320       .  A
N3552      N3553   1.313       .  A
N3552     Mn3570   2.182       .  S
N3553      C3560   1.342       .  A
N3554      N3555   1.328       .  A
N3555      C3560   1.361       .  A
N3556      N3557   1.312       .  A
N3557      C3559   1.341       .  A
C3559      C3790   1.481       .  S
C3560      C3883   1.473       .  S
N3561      N3562   1.322       .  A
N3561      N3567   1.312       .  A
N3561     Mn3569   2.205       .  S
N3562      C3572   1.354       .  A
N3563      N3564   1.323       .  A
N3563      N3565   1.314       .  A
N3564      C3573   1.352       .  A
N3565      N3566   1.321       .  A
N3566      C3573   1.355       .  A
N3567      N3568   1.322       .  A
N3567     Mn3570   2.196       .  S
N3568      C3572   1.353       .  A
Mn3569    Cl3571   2.591       .  S
Mn3570    Cl3571   2.477       .  S
C3572      C3655   1.492       .  S
C3573      C3646   1.495       .  S
N3574      N3575   1.323       .  A
N3574      N3580   1.314       .  A
N3575      C3582   1.354       .  A
N3576      N3578   1.313       .  A
N3576      N3577   1.322       .  A
N3576     Mn3592   2.187       .  S
N3577      C3583   1.350       .  A
N3578      N3579   1.321       .  A
N3578     Mn3603   2.206       .  S
N3579      C3583   1.355       .  A
N3580      N3581   1.322       .  A
N3581      C3582   1.351       .  A
C3582      C3679   1.491       .  S
C3583      C3670   1.487       .  S
N3584      N3590   1.320       .  A
N3584      N3585   1.328       .  A
N3584     Mn3614   2.240   1_655  S
N3585      C3593   1.361       .  A
N3586      N3587   1.311       .  A
N3586      N3588   1.319       .  A
N3587      C3594   1.342       .  A
N3588      N3589   1.334       .  A
N3589      C3594   1.364       .  A
N3590      N3591   1.313       .  A
N3590     Mn3592   2.182       .  S
N3591      C3593   1.342       .  A
Mn3592    Cl3616   2.476       .  S
C3593      C3778   1.471       .  S
C3594      C3874   1.486       .  S
N3595      N3596   1.324       .  A
N3595      N3601   1.312       .  A
N3595     Mn3603   2.218       .  S
N3596      C3604   1.357       .  A
N3597      N3599   1.312       .  A
N3597      N3598   1.322       .  A
N3598      C3605   1.351       .  A
N3599      N3600   1.324       .  A
N3600      C3605   1.353       .  A
N3601      N3602   1.323       .  A
N3601     Mn3615   2.198   1_655  S
N3602      C3604   1.352       .  A
Mn3603    Cl3616   2.588       .  S
C3604      C3619   1.489       .  S
C3605      C3631   1.479       .  S
N3606      N3607   1.332       .  A
N3606      N3612   1.319       .  A
N3607      C3617   1.364       .  A
N3608      N3609   1.312       .  A
N3608      N3610   1.319       .  A
N3608     Mn3615   2.174   1_655  S
N3609      C3618   1.340       .  A
N3610      N3611   1.329       .  A
N3610     Mn3614   2.243   1_655  S
N3611      C3618   1.361       .  A
N3612      N3613   1.309       .  A
N3613      C3617   1.341       .  A
Mn3614    Cl3616   2.616   1_455  S
Mn3615    Cl3616   2.468   1_455  S
C3617      C3862   1.478       .  S
C3618      C3766   1.472       .  S
C3619      C3620   1.406       .  A
C3619      C3624   1.407       .  A
C3620      C3621   1.406       .  A
C3620      H3625   1.084       .  S
C3621      C3622   1.411       .  A
C3621      O3626   1.371       .  S
C3622      C3623   1.405       .  A
C3623      C3624   1.408       .  A
C3623      H3627   1.081       .  S
C3624      O3628   1.369       .  S
O3626      H3630   0.992       .  S
C3631      C3632   1.401       .  A
C3631      C3636   1.411       .  A
C3632      C3633   1.404       .  A
C3632      H3637   1.084       .  S
C3633      C3634   1.412       .  A
C3633      O3638   1.371       .  S
C3634      C3635   1.401       .  A
C3635      C3636   1.404       .  A
C3635      H3639   1.083       .  S
C3636      O3640   1.372       .  S
O3638      H3642   0.987   1_565  S
O3640      H3641   0.992       .  S
C3643      C3644   1.399       .  A
C3643      C3648   1.416       .  A
C3644      C3645   1.396       .  A
C3644      H3649   1.084       .  S
C3645      C3646   1.411       .  A
C3645      O3650   1.361       .  S
C3646      C3647   1.405       .  A
C3647      C3648   1.406       .  A
C3647      H3651   1.083       .  S
C3648      O3652   1.370       .  S
O3650      H3654   0.985       .  S
O3652      H3653   0.992       .  S
C3655      C3656   1.406       .  A
C3655      C3660   1.412       .  A
C3656      C3657   1.405       .  A
C3656      H3661   1.083       .  S
C3657      C3658   1.415       .  A
C3657      O3662   1.371       .  S
C3658      C3659   1.402       .  A
C3659      C3660   1.401       .  A
C3659      H3663   1.079       .  S
C3660      O3664   1.369       .  S
O3662      H3666   0.992       .  S
O3664      H3665   0.991       .  S
C3667      C3668   1.399       .  A
C3667      C3672   1.416       .  A
C3668      C3669   1.398       .  A
C3668      H3673   1.084       .  S
C3669      C3670   1.408       .  A
C3669      O3674   1.362       .  S
C3670      C3671   1.402       .  A
C3671      C3672   1.405       .  A
C3671      H3675   1.083       .  S
C3672      O3676   1.372       .  S
O3674      H3678   0.988       .  S
O3676      H3677   0.992       .  S
C3679      C3680   1.404       .  A
C3679      C3684   1.411       .  A
C3680      C3681   1.402       .  A
C3680      H3685   1.080       .  S
C3681      C3682   1.408       .  A
C3681      O3686   1.367       .  S
C3682      C3683   1.408       .  A
C3683      C3684   1.405       .  A
C3683      H3687   1.083       .  S
C3684      O3688   1.371       .  S
O3686      H3690   0.988       .  S
O3688      H3689   0.992       .  S
C3691      C3692   1.405       .  A
C3691      C3696   1.410       .  A
C3692      C3693   1.405       .  A
C3692      H3697   1.082       .  S
C3693      C3694   1.408       .  A
C3693      O3698   1.368       .  S
C3694      C3695   1.405       .  A
C3695      C3696   1.405       .  A
C3695      H3699   1.084       .  S
C3696      O3700   1.371       .  S
O3700      H3701   0.992       .  S
C3703      C3704   1.402       .  A
C3703      C3708   1.413       .  A
C3704      C3705   1.404       .  A
C3704      H3709   1.084       .  S
C3705      C3706   1.407       .  A
C3705      O3710   1.367       .  S
C3706      C3707   1.402       .  A
C3707      C3708   1.406       .  A
C3707      H3711   1.083       .  S
C3708      O3712   1.372       .  S
O3712      H3713   0.992       .  S
C3715      C3716   1.395       .  A
C3715      C3720   1.419       .  A
C3716      C3717   1.401       .  A
C3716      H3721   1.083       .  S
C3717      C3718   1.418       .  A
C3717      O3722   1.373       .  S
C3718      C3719   1.394       .  A
C3719      C3720   1.398       .  A
C3719      H3723   1.084       .  S
C3720      O3724   1.372       .  S
O3722      H3726   0.992       .  S
O3724      H3725   0.992       .  S
C3727      C3728   1.415       .  A
C3727      C3732   1.403       .  A
C3728      C3729   1.396       .  A
C3728      H3733   1.083       .  S
C3729      C3730   1.395       .  A
C3729      O3734   1.371       .  S
C3730      C3731   1.411       .  A
C3731      C3732   1.403       .  A
C3731      H3735   1.084       .  S
C3732      O3736   1.371       .  S
O3734      H3738   0.992       .  S
O3736      H3737   0.992       .  S
C3739      C3740   1.403       .  A
C3739      C3744   1.409       .  A
C3740      C3741   1.389       .  A
C3740      H3745   1.079       .  S
C3741      C3742   1.400       .  A
C3741      O3746   1.372       .  S
C3742      C3743   1.409       .  A
C3743      C3744   1.410       .  A
C3743      H3747   1.084       .  S
C3744      O3748   1.371       .  S
O3746      H3750   0.992       .  S
O3748      H3749   0.992       .  S
C3751      C3752   1.406       .  A
C3751      C3756   1.402       .  A
C3752      C3753   1.407       .  A
C3752      H3757   1.084       .  S
C3753      C3754   1.409       .  A
C3753      O3758   1.371       .  S
C3754      C3755   1.403       .  A
C3755      C3756   1.390       .  A
C3755      H3759   1.085       .  S
C3756      O3760   1.371       .  S
O3758      H3762   0.992       .  S
O3760      H3761   0.992       .  S
C3763      C3764   1.401       .  A
C3763      C3768   1.416       .  A
C3764      C3765   1.404       .  A
C3764      H3769   1.083       .  S
C3765      C3766   1.409       .  A
C3765      O3770   1.368       .  S
C3766      C3767   1.398       .  A
C3767      C3768   1.401       .  A
C3767      H3771   1.084       .  S
C3768      O3772   1.369       .  S
O3770      H3774   0.992       .  S
O3772      H3773   0.991       .  S
C3775      C3776   1.399       .  A
C3775      C3780   1.414       .  A
C3776      C3777   1.399       .  A
C3776      H3781   1.084       .  S
C3777      C3778   1.408       .  A
C3777      O3782   1.369       .  S
C3778      C3779   1.400       .  A
C3779      C3780   1.404       .  A
C3779      H3783   1.083       .  S
C3780      O3784   1.371       .  S
O3782      H3786   0.992       .  S
O3784      H3785   0.992       .  S
C3787      C3788   1.407       .  A
C3787      C3792   1.413       .  A
C3788      C3789   1.400       .  A
C3788      H3793   1.083       .  S
C3789      C3790   1.408       .  A
C3789      O3794   1.373       .  S
C3790      C3791   1.404       .  A
C3791      C3792   1.408       .  A
C3791      H3795   1.081       .  S
C3792      O3796   1.368       .  S
O3794      H3798   0.992       .  S
O3796      H3797   0.990       .  S
C3799      C3800   1.411       .  A
C3799      C3804   1.415       .  A
C3800      C3801   1.413       .  A
C3800      H3805   1.083       .  S
C3801      C3802   1.412       .  A
C3801      O3806   1.373       .  S
C3802      C3803   1.400       .  A
C3803      C3804   1.395       .  A
C3803      H3807   1.085       .  S
C3804      O3808   1.372       .  S
O3806      H3810   0.989       .  S
O3808      H3809   0.992       .  S
C3811      C3812   1.394       .  A
C3811      C3816   1.421       .  A
C3812      C3813   1.400       .  A
C3812      H3817   1.083       .  S
C3813      C3814   1.417       .  A
C3813      O3818   1.373       .  S
C3814      C3815   1.391       .  A
C3815      C3816   1.395       .  A
C3815      H3819   1.084       .  S
C3816      O3820   1.372       .  S
O3818      H3822   0.992       .  S
O3820      H3821   0.991       .  S
C3823      C3824   1.388       .  A
C3823      C3828   1.413       .  A
C3824      C3825   1.394       .  A
C3824      H3829   1.084       .  S
C3825      C3826   1.424       .  A
C3825      O3830   1.372       .  S
C3826      C3827   1.398       .  A
C3827      C3828   1.402       .  A
C3827      H3831   1.083       .  S
C3828      O3832   1.373       .  S
O3830      H3834   0.992       .  S
O3832      H3833   0.992       .  S
C3835      C3836   1.407       .  A
C3835      C3840   1.409       .  A
C3836      C3837   1.389       .  A
C3836      H3841   1.084       .  S
C3837      C3838   1.398       .  A
C3837      O3842   1.371       .  S
C3838      C3839   1.409       .  A
C3839      C3840   1.409       .  A
C3839      H3843   1.084       .  S
C3840      O3844   1.371       .  S
O3842      H3846   0.992       .  S
O3844      H3845   0.992       .  S
C3847      C3848   1.394       .  A
C3847      C3852   1.418       .  A
C3848      C3849   1.400       .  A
C3848      H3853   1.084       .  S
C3849      C3850   1.418       .  A
C3849      O3854   1.373       .  S
C3850      C3851   1.394       .  A
C3851      C3852   1.400       .  A
C3851      H3855   1.084       .  S
C3852      O3856   1.373       .  S
O3854      H3858   0.992       .  S
O3856      H3857   0.992       .  S
C3859      C3860   1.408       .  A
C3859      C3864   1.415       .  A
C3860      C3861   1.410       .  A
C3860      H3865   1.079       .  S
C3861      C3862   1.407       .  A
C3861      O3866   1.369       .  S
C3862      C3863   1.401       .  A
C3863      C3864   1.397       .  A
C3863      H3867   1.085       .  S
C3864      O3868   1.372       .  S
O3866      H3870   0.992       .  S
O3868      H3869   0.992       .  S
C3871      C3872   1.411       .  A
C3871      C3876   1.414       .  A
C3872      C3873   1.414       .  A
C3872      H3877   1.083       .  S
C3873      C3874   1.411       .  A
C3873      O3878   1.371       .  S
C3874      C3875   1.401       .  A
C3875      C3876   1.395       .  A
C3875      H3879   1.084       .  S
C3876      O3880   1.371       .  S
O3878      H3882   0.991       .  S
O3880      H3881   0.991       .  S
C3883      C3884   1.401       .  A
C3883      C3888   1.408       .  A
C3884      C3885   1.401       .  A
C3884      H3889   1.084       .  S
C3885      C3886   1.416       .  A
C3885      O3890   1.372       .  S
C3886      C3887   1.402       .  A
C3887      C3888   1.402       .  A
C3887      H3891   1.077       .  S
C3888      O3892   1.370       .  S
O3890      H3894   0.992       .  S
O3892      H3893   0.992       .  S
C3895      C3896   1.394       .  A
C3895      C3900   1.413       .  A
C3896      C3897   1.398       .  A
C3896      H3901   1.084       .  S
C3897      C3898   1.416       .  A
C3897      O3902   1.372       .  S
C3898      C3899   1.400       .  A
C3899      C3900   1.406       .  A
C3899      H3903   1.083       .  S
C3900      O3904   1.371       .  S
O3902      H3906   0.992       .  S
O3904      H3905   0.992       .  S
N3907      N3908   1.329       .  A
N3907      N3913   1.321       .  A
N3908      C3915   1.358       .  A
N3909      N3911   1.320       .  A
N3909      N3910   1.306       .  A
N3910      C3916   1.334       .  A
N3911      N3912   1.331       .  A
N3911     Mn3936   2.242   1_556  S
N3912      C3916   1.363       .  A
N3913      N3914   1.311       .  A
N3913     Mn3925   2.168       .  S
N3914      C3915   1.338       .  A
C3915      C4408   1.475       .  S
C3916      C4384   1.481       .  S
N3917      N3923   1.311       .  A
N3917      N3918   1.327       .  A
N3918      C3926   1.357       .  A
N3919      N3920   1.319       .  A
N3919      N3921   1.312       .  A
N3919     Mn3925   2.176       .  S
N3920      C3927   1.348       .  A
N3921      N3922   1.324       .  A
N3921     Mn3947   2.207       .  S
N3922      C3927   1.352       .  A
N3923      N3924   1.317       .  A
N3924      C3926   1.346       .  A
Mn3925    Cl3949   2.450       .  S
C3926      C4444   1.490       .  S
C3927      C4453   1.473       .  S
N3928      N3929   1.330       .  A
N3928      N3934   1.322       .  A
N3928     Mn3936   2.239   1_556  S
N3929      C3937   1.360       .  A
N3930      N3932   1.320       .  A
N3930      N3931   1.310       .  A
N3931      C3938   1.337       .  A
N3932      N3933   1.329       .  A
N3933      C3938   1.358       .  A
N3934      N3935   1.307       .  A
N3934     Mn3948   2.160   1_556  S
N3935      C3937   1.335       .  A
C3937      C4369   1.473       .  S
C3938      C4396   1.461       .  S
N3939      N3940   1.330       .  A
N3939      N3945   1.312       .  A
N3939     Mn3947   2.226       .  S
N3940      C3950   1.358       .  A
N3941      N3942   1.316       .  A
N3941      N3943   1.311       .  A
N3941     Mn3948   2.165   1_556  S
N3942      C3951   1.345       .  A
N3943      N3944   1.330       .  A
N3944      C3951   1.359       .  A
N3945      N3946   1.317       .  A
N3946      C3950   1.347       .  A
Mn3947    Cl3949   2.593       .  S
C3950      C4429   1.497       .  S
C3951      C4417   1.494       .  S
N3952      N3953   1.329       .  A
N3952      N3958   1.312       .  A
N3952     Mn3981   2.224       .  S
N3953      C3960   1.357       .  A
N3954      N3956   1.311       .  A
N3954      N3955   1.318       .  A
N3955      C3961   1.346       .  A
N3956      N3957   1.327       .  A
N3957      C3961   1.357       .  A
N3958      N3959   1.317       .  A
N3958     Mn3970   2.177       .  S
N3959      C3960   1.348       .  A
C3960      C4357   1.496       .  S
C3961      C4345   1.495       .  S
N3962      N3968   1.319       .  A
N3962      N3963   1.331       .  A
N3963      C3971   1.363       .  A
N3964      N3965   1.311       .  A
N3964      N3966   1.322       .  A
N3964     Mn3970   2.167       .  S
N3965      C3972   1.338       .  A
N3966      N3967   1.329       .  A
N3966     Mn3992   2.239       .  S
N3967      C3972   1.359       .  A
N3968      N3969   1.306       .  A
N3969      C3971   1.335       .  A
Mn3970    Cl3994   2.464       .  S
C3971      C4312   1.467       .  S
C3972      C4288   1.468       .  S
N3973      N3974   1.327       .  A
N3973      N3979   1.311       .  A
N3974      C3982   1.356       .  A
N3975      N3977   1.312       .  A
N3975      N3976   1.320       .  A
N3975     Mn3993   2.181       .  S
N3976      C3983   1.349       .  A
N3977      N3978   1.323       .  A
N3977     Mn3981   2.204       .  S
N3978      C3983   1.352       .  A
N3979      N3980   1.318       .  A
N3980      C3982   1.347       .  A
Mn3981    Cl3994   2.596       .  S
C3982      C4321   1.489       .  S
C3983      C4333   1.479       .  S
N3984      N3985   1.329       .  A
N3984      N3990   1.322       .  A
N3984     Mn3992   2.236       .  S
N3985      C3995   1.359       .  A
N3986      N3987   1.307       .  A
N3986      N3988   1.319       .  A
N3987      C3996   1.336       .  A
N3988      N3989   1.332       .  A
N3989      C3996   1.363       .  A
N3990      N3991   1.311       .  A
N3990     Mn3993   2.170       .  S
N3991      C3995   1.338       .  A
Mn3992    Cl3994   2.599       .  S
Mn3993    Cl3994   2.456       .  S
C3995      C4276   1.475       .  S
C3996      C4297   1.474       .  S
N3997      N3998   1.329       .  A
N3997      N4003   1.322       .  A
N3997     Mn4026   2.234       .  S
N3998      C4005   1.359       .  A
N3999      N4001   1.322       .  A
N3999      N4000   1.308       .  A
N3999     Mn4015   2.164       .  S
N4000      C4006   1.337       .  A
N4001      N4002   1.332       .  A
N4001     Mn4026   2.251       .  S
N4002      C4006   1.363       .  A
N4003      N4004   1.310       .  A
N4003     Mn4015   2.169       .  S
N4004      C4005   1.338       .  A
C4005      C4405   1.474       .  S
C4006      C4285   1.483       .  S
N4007      N4013   1.312       .  A
N4007      N4008   1.326       .  A
N4008      C4016   1.356       .  A
N4009      N4010   1.321       .  A
N4009      N4011   1.313       .  A
N4009     Mn4015   2.182       .  S
N4010      C4017   1.348       .  A
N4011      N4012   1.326       .  A
N4012      C4017   1.357       .  A
N4013      N4014   1.321       .  A
N4013     Mn4015   2.181       .  S
N4014      C4016   1.348       .  A
C4016      C4249   1.485       .  S
C4017      C4264   1.484       .  S
N4018      N4019   1.330       .  A
N4018      N4024   1.321       .  A
N4019      C4027   1.360       .  A
N4020      N4022   1.319       .  A
N4020      N4021   1.305       .  A
N4020     Mn4038   2.150       .  S
N4021      C4028   1.335       .  A
N4022      N4023   1.333       .  A
N4023      C4028   1.365       .  A
N4024      N4025   1.310       .  A
N4024     Mn4038   2.170       .  S
N4025      C4027   1.338       .  A
C4027      C4273   1.477       .  S
C4028      C4393   1.476       .  S
N4029      N4030   1.324       .  A
N4029      N4035   1.310       .  A
N4029     Mn4037   2.211   1_565  S
N4030      C4040   1.358       .  A
N4031      N4032   1.319       .  A
N4031      N4033   1.312       .  A
N4031     Mn4038   2.176       .  S
N4032      C4041   1.348       .  A
N4033      N4034   1.324       .  A
N4033     Mn4037   2.213   1_565  S
N4034      C4041   1.356       .  A
N4035      N4036   1.321       .  A
N4035     Mn4038   2.184       .  S
N4036      C4040   1.350       .  A
Mn4037    Cl4039   2.577       .  S
Mn4038    Cl4039   2.459   1_565  S
C4040      C4240   1.493       .  S
C4041      C4225   1.483       .  S
N4042      N4043   1.324       .  A
N4042      N4048   1.313       .  A
N4042     Mn4071   2.220       .  S
N4043      C4050   1.358       .  A
N4044      N4046   1.311       .  A
N4044      N4045   1.320       .  A
N4044     Mn4060   2.179       .  S
N4045      C4051   1.349       .  A
N4046      N4047   1.323       .  A
N4046     Mn4071   2.205       .  S
N4047      C4051   1.357       .  A
N4048      N4049   1.321       .  A
N4048     Mn4060   2.188       .  S
N4049      C4050   1.351       .  A
C4050      C4216   1.493       .  S
C4051      C4201   1.487       .  S
N4052      N4058   1.319       .  A
N4052      N4053   1.329       .  A
N4052     Mn4082   2.236       .  S
N4053      C4061   1.360       .  A
N4054      N4055   1.311       .  A
N4054      N4056   1.321       .  A
N4054     Mn4060   2.164       .  S
N4055      C4062   1.338       .  A
N4056      N4057   1.327       .  A
N4056     Mn4082   2.226       .  S
N4057      C4062   1.356       .  A
N4058      N4059   1.308       .  A
N4058     Mn4060   2.159       .  S
N4059      C4061   1.337       .  A
Mn4060    Cl4084   2.477       .  S
C4061      C4309   1.462       .  S
C4062      C4381   1.463       .  S
N4063      N4064   1.329       .  A
N4063      N4069   1.313       .  A
N4064      C4072   1.359       .  A
N4065      N4067   1.313       .  A
N4065      N4066   1.322       .  A
N4065     Mn4083   2.179       .  S
N4066      C4073   1.348       .  A
N4067      N4068   1.324       .  A
N4068      C4073   1.356       .  A
N4069      N4070   1.320       .  A
N4069     Mn4083   2.180       .  S
N4070      C4072   1.346       .  A
Mn4071    Cl4084   2.569       .  S
C4072      C4180   1.490       .  S
C4073      C4192   1.481       .  S
N4074      N4075   1.328       .  A
N4074      N4080   1.322       .  A
N4075      C4085   1.357       .  A
N4076      N4077   1.309       .  A
N4076      N4078   1.320       .  A
N4076     Mn4083   2.162       .  S
N4077      C4086   1.336       .  A
N4078      N4079   1.329       .  A
N4079      C4086   1.359       .  A
N4080      N4081   1.310       .  A
N4080     Mn4083   2.166       .  S
N4081      C4085   1.337       .  A
Mn4082    Cl4084   2.597       .  S
C4085      C4372   1.469       .  S
C4086      C4300   1.462       .  S
N4087      N4088   1.330       .  A
N4087      N4093   1.320       .  A
N4088      C4095   1.361       .  A
N4089      N4091   1.320       .  A
N4089      N4090   1.311       .  A
N4090      C4096   1.342       .  A
N4091      N4092   1.332       .  A
N4091     Mn4116   2.237   1_655  S
N4092      C4096   1.362       .  A
N4093      N4094   1.311       .  A
N4093     Mn4105   2.173       .  S
N4094      C4095   1.339       .  A
C4095      C4456   1.476       .  S
C4096      C4360   1.479       .  S
N4097      N4103   1.312       .  A
N4097      N4098   1.322       .  A
N4098      C4106   1.356       .  A
N4099      N4100   1.322       .  A
N4099      N4101   1.313       .  A
N4099     Mn4105   2.199       .  S
N4100      C4107   1.351       .  A
N4101      N4102   1.324       .  A
N4101     Mn4127   2.207       .  S
N4102      C4107   1.354       .  A
N4103      N4104   1.323       .  A
N4104      C4106   1.351       .  A
Mn4105    Cl4129   2.463       .  S
C4106      C4252   1.488       .  S
C4107      C4261   1.485       .  S
N4108      N4109   1.332       .  A
N4108      N4114   1.319       .  A
N4108     Mn4116   2.252   1_655  S
N4109      C4117   1.364       .  A
N4110      N4112   1.320       .  A
N4110      N4111   1.313       .  A
N4110     Mn4128   2.182       .  S
N4111      C4118   1.342       .  A
N4112      N4113   1.328       .  A
N4113      C4118   1.361       .  A
N4114      N4115   1.312       .  A
N4115      C4117   1.341       .  A
C4117      C4348   1.481       .  S
C4118      C4441   1.473       .  S
N4119      N4120   1.322       .  A
N4119      N4125   1.312       .  A
N4119     Mn4127   2.205       .  S
N4120      C4130   1.354       .  A
N4121      N4122   1.323       .  A
N4121      N4123   1.314       .  A
N4122      C4131   1.352       .  A
N4123      N4124   1.321       .  A
N4124      C4131   1.355       .  A
N4125      N4126   1.322       .  A
N4125     Mn4128   2.196       .  S
N4126      C4130   1.353       .  A
Mn4127    Cl4129   2.591       .  S
Mn4128    Cl4129   2.477       .  S
C4130      C4213   1.492       .  S
C4131      C4204   1.495       .  S
N4132      N4133   1.323       .  A
N4132      N4138   1.314       .  A
N4133      C4140   1.354       .  A
N4134      N4136   1.313       .  A
N4134      N4135   1.322       .  A
N4134     Mn4150   2.187       .  S
N4135      C4141   1.350       .  A
N4136      N4137   1.321       .  A
N4136     Mn4161   2.206       .  S
N4137      C4141   1.355       .  A
N4138      N4139   1.322       .  A
N4139      C4140   1.351       .  A
C4140      C4237   1.491       .  S
C4141      C4228   1.487       .  S
N4142      N4148   1.320       .  A
N4142      N4143   1.328       .  A
N4142     Mn4172   2.240   1_655  S
N4143      C4151   1.361       .  A
N4144      N4145   1.311       .  A
N4144      N4146   1.319       .  A
N4145      C4152   1.342       .  A
N4146      N4147   1.334       .  A
N4147      C4152   1.364       .  A
N4148      N4149   1.313       .  A
N4148     Mn4150   2.182       .  S
N4149      C4151   1.342       .  A
Mn4150    Cl4174   2.476       .  S
C4151      C4336   1.471       .  S
C4152      C4432   1.486       .  S
N4153      N4154   1.324       .  A
N4153      N4159   1.312       .  A
N4153     Mn4161   2.218       .  S
N4154      C4162   1.357       .  A
N4155      N4157   1.312       .  A
N4155      N4156   1.322       .  A
N4156      C4163   1.351       .  A
N4157      N4158   1.324       .  A
N4158      C4163   1.353       .  A
N4159      N4160   1.323       .  A
N4159     Mn4173   2.198   1_655  S
N4160      C4162   1.352       .  A
Mn4161    Cl4174   2.588       .  S
C4162      C4177   1.489       .  S
C4163      C4189   1.479       .  S
N4164      N4165   1.332       .  A
N4164      N4170   1.319       .  A
N4165      C4175   1.364       .  A
N4166      N4167   1.312       .  A
N4166      N4168   1.319       .  A
N4166     Mn4173   2.174   1_655  S
N4167      C4176   1.340       .  A
N4168      N4169   1.329       .  A
N4168     Mn4172   2.243   1_655  S
N4169      C4176   1.361       .  A
N4170      N4171   1.309       .  A
N4171      C4175   1.341       .  A
Mn4172    Cl4174   2.616   1_455  S
Mn4173    Cl4174   2.468   1_455  S
C4175      C4420   1.478       .  S
C4176      C4324   1.472       .  S
C4177      C4178   1.406       .  A
C4177      C4182   1.407       .  A
C4178      C4179   1.406       .  A
C4178      H4183   1.084       .  S
C4179      C4180   1.411       .  A
C4179      O4184   1.371       .  S
C4180      C4181   1.405       .  A
C4181      C4182   1.408       .  A
C4181      H4185   1.081       .  S
C4182      O4186   1.369       .  S
O4184      H4188   0.992       .  S
C4189      C4190   1.401       .  A
C4189      C4194   1.411       .  A
C4190      C4191   1.404       .  A
C4190      H4195   1.084       .  S
C4191      C4192   1.412       .  A
C4191      O4196   1.371       .  S
C4192      C4193   1.401       .  A
C4193      C4194   1.404       .  A
C4193      H4197   1.083       .  S
C4194      O4198   1.372       .  S
O4196      H4200   0.987   1_565  S
O4198      H4199   0.992       .  S
C4201      C4202   1.399       .  A
C4201      C4206   1.416       .  A
C4202      C4203   1.396       .  A
C4202      H4207   1.084       .  S
C4203      C4204   1.411       .  A
C4203      O4208   1.361       .  S
C4204      C4205   1.405       .  A
C4205      C4206   1.406       .  A
C4205      H4209   1.083       .  S
C4206      O4210   1.370       .  S
O4208      H4212   0.985       .  S
O4210      H4211   0.992       .  S
C4213      C4214   1.406       .  A
C4213      C4218   1.412       .  A
C4214      C4215   1.405       .  A
C4214      H4219   1.083       .  S
C4215      C4216   1.415       .  A
C4215      O4220   1.371       .  S
C4216      C4217   1.402       .  A
C4217      C4218   1.401       .  A
C4217      H4221   1.079       .  S
C4218      O4222   1.369       .  S
O4220      H4224   0.992       .  S
O4222      H4223   0.991       .  S
C4225      C4226   1.399       .  A
C4225      C4230   1.416       .  A
C4226      C4227   1.398       .  A
C4226      H4231   1.084       .  S
C4227      C4228   1.408       .  A
C4227      O4232   1.362       .  S
C4228      C4229   1.402       .  A
C4229      C4230   1.405       .  A
C4229      H4233   1.083       .  S
C4230      O4234   1.372       .  S
O4232      H4236   0.988       .  S
O4234      H4235   0.992       .  S
C4237      C4238   1.404       .  A
C4237      C4242   1.411       .  A
C4238      C4239   1.402       .  A
C4238      H4243   1.080       .  S
C4239      C4240   1.408       .  A
C4239      O4244   1.367       .  S
C4240      C4241   1.408       .  A
C4241      C4242   1.405       .  A
C4241      H4245   1.083       .  S
C4242      O4246   1.371       .  S
O4244      H4248   0.988       .  S
O4246      H4247   0.992       .  S
C4249      C4250   1.405       .  A
C4249      C4254   1.410       .  A
C4250      C4251   1.405       .  A
C4250      H4255   1.082       .  S
C4251      C4252   1.408       .  A
C4251      O4256   1.368       .  S
C4252      C4253   1.405       .  A
C4253      C4254   1.405       .  A
C4253      H4257   1.084       .  S
C4254      O4258   1.371       .  S
O4258      H4259   0.992       .  S
C4261      C4262   1.402       .  A
C4261      C4266   1.413       .  A
C4262      C4263   1.404       .  A
C4262      H4267   1.084       .  S
C4263      C4264   1.407       .  A
C4263      O4268   1.367       .  S
C4264      C4265   1.402       .  A
C4265      C4266   1.406       .  A
C4265      H4269   1.083       .  S
C4266      O4270   1.372       .  S
O4270      H4271   0.992       .  S
C4273      C4274   1.395       .  A
C4273      C4278   1.419       .  A
C4274      C4275   1.401       .  A
C4274      H4279   1.083       .  S
C4275      C4276   1.418       .  A
C4275      O4280   1.373       .  S
C4276      C4277   1.394       .  A
C4277      C4278   1.398       .  A
C4277      H4281   1.084       .  S
C4278      O4282   1.372       .  S
O4280      H4284   0.992       .  S
O4282      H4283   0.992       .  S
C4285      C4286   1.415       .  A
C4285      C4290   1.403       .  A
C4286      C4287   1.396       .  A
C4286      H4291   1.083       .  S
C4287      C4288   1.395       .  A
C4287      O4292   1.371       .  S
C4288      C4289   1.411       .  A
C4289      C4290   1.403       .  A
C4289      H4293   1.084       .  S
C4290      O4294   1.371       .  S
O4292      H4296   0.992       .  S
O4294      H4295   0.992       .  S
C4297      C4298   1.403       .  A
C4297      C4302   1.409       .  A
C4298      C4299   1.389       .  A
C4298      H4303   1.079       .  S
C4299      C4300   1.400       .  A
C4299      O4304   1.372       .  S
C4300      C4301   1.409       .  A
C4301      C4302   1.410       .  A
C4301      H4305   1.084       .  S
C4302      O4306   1.371       .  S
O4304      H4308   0.992       .  S
O4306      H4307   0.992       .  S
C4309      C4310   1.406       .  A
C4309      C4314   1.402       .  A
C4310      C4311   1.407       .  A
C4310      H4315   1.084       .  S
C4311      C4312   1.409       .  A
C4311      O4316   1.371       .  S
C4312      C4313   1.403       .  A
C4313      C4314   1.390       .  A
C4313      H4317   1.085       .  S
C4314      O4318   1.371       .  S
O4316      H4320   0.992       .  S
O4318      H4319   0.992       .  S
C4321      C4322   1.401       .  A
C4321      C4326   1.416       .  A
C4322      C4323   1.404       .  A
C4322      H4327   1.083       .  S
C4323      C4324   1.409       .  A
C4323      O4328   1.368       .  S
C4324      C4325   1.398       .  A
C4325      C4326   1.401       .  A
C4325      H4329   1.084       .  S
C4326      O4330   1.369       .  S
O4328      H4332   0.992       .  S
O4330      H4331   0.991       .  S
C4333      C4334   1.399       .  A
C4333      C4338   1.414       .  A
C4334      C4335   1.399       .  A
C4334      H4339   1.084       .  S
C4335      C4336   1.408       .  A
C4335      O4340   1.369       .  S
C4336      C4337   1.400       .  A
C4337      C4338   1.404       .  A
C4337      H4341   1.083       .  S
C4338      O4342   1.371       .  S
O4340      H4344   0.992       .  S
O4342      H4343   0.992       .  S
C4345      C4346   1.407       .  A
C4345      C4350   1.413       .  A
C4346      C4347   1.400       .  A
C4346      H4351   1.083       .  S
C4347      C4348   1.408       .  A
C4347      O4352   1.373       .  S
C4348      C4349   1.404       .  A
C4349      C4350   1.408       .  A
C4349      H4353   1.081       .  S
C4350      O4354   1.368       .  S
O4352      H4356   0.992       .  S
O4354      H4355   0.990       .  S
C4357      C4358   1.411       .  A
C4357      C4362   1.415       .  A
C4358      C4359   1.413       .  A
C4358      H4363   1.083       .  S
C4359      C4360   1.412       .  A
C4359      O4364   1.373       .  S
C4360      C4361   1.400       .  A
C4361      C4362   1.395       .  A
C4361      H4365   1.085       .  S
C4362      O4366   1.372       .  S
O4364      H4368   0.989       .  S
O4366      H4367   0.992       .  S
C4369      C4370   1.394       .  A
C4369      C4374   1.421       .  A
C4370      C4371   1.400       .  A
C4370      H4375   1.083       .  S
C4371      C4372   1.417       .  A
C4371      O4376   1.373       .  S
C4372      C4373   1.391       .  A
C4373      C4374   1.395       .  A
C4373      H4377   1.084       .  S
C4374      O4378   1.372       .  S
O4376      H4380   0.992       .  S
O4378      H4379   0.991       .  S
C4381      C4382   1.388       .  A
C4381      C4386   1.413       .  A
C4382      C4383   1.394       .  A
C4382      H4387   1.084       .  S
C4383      C4384   1.424       .  A
C4383      O4388   1.372       .  S
C4384      C4385   1.398       .  A
C4385      C4386   1.402       .  A
C4385      H4389   1.083       .  S
C4386      O4390   1.373       .  S
O4388      H4392   0.992       .  S
O4390      H4391   0.992       .  S
C4393      C4394   1.407       .  A
C4393      C4398   1.409       .  A
C4394      C4395   1.389       .  A
C4394      H4399   1.084       .  S
C4395      C4396   1.398       .  A
C4395      O4400   1.371       .  S
C4396      C4397   1.409       .  A
C4397      C4398   1.409       .  A
C4397      H4401   1.084       .  S
C4398      O4402   1.371       .  S
O4400      H4404   0.992       .  S
O4402      H4403   0.992       .  S
C4405      C4406   1.394       .  A
C4405      C4410   1.418       .  A
C4406      C4407   1.400       .  A
C4406      H4411   1.084       .  S
C4407      C4408   1.418       .  A
C4407      O4412   1.373       .  S
C4408      C4409   1.394       .  A
C4409      C4410   1.400       .  A
C4409      H4413   1.084       .  S
C4410      O4414   1.373       .  S
O4412      H4416   0.992       .  S
O4414      H4415   0.992       .  S
C4417      C4418   1.408       .  A
C4417      C4422   1.415       .  A
C4418      C4419   1.410       .  A
C4418      H4423   1.079       .  S
C4419      C4420   1.407       .  A
C4419      O4424   1.369       .  S
C4420      C4421   1.401       .  A
C4421      C4422   1.397       .  A
C4421      H4425   1.085       .  S
C4422      O4426   1.372       .  S
O4424      H4428   0.992       .  S
O4426      H4427   0.992       .  S
C4429      C4430   1.411       .  A
C4429      C4434   1.414       .  A
C4430      C4431   1.414       .  A
C4430      H4435   1.083       .  S
C4431      C4432   1.411       .  A
C4431      O4436   1.371       .  S
C4432      C4433   1.401       .  A
C4433      C4434   1.395       .  A
C4433      H4437   1.084       .  S
C4434      O4438   1.371       .  S
O4436      H4440   0.991       .  S
O4438      H4439   0.991       .  S
C4441      C4442   1.401       .  A
C4441      C4446   1.408       .  A
C4442      C4443   1.401       .  A
C4442      H4447   1.084       .  S
C4443      C4444   1.416       .  A
C4443      O4448   1.372       .  S
C4444      C4445   1.402       .  A
C4445      C4446   1.402       .  A
C4445      H4449   1.077       .  S
C4446      O4450   1.370       .  S
O4448      H4452   0.992       .  S
O4450      H4451   0.992       .  S
C4453      C4454   1.394       .  A
C4453      C4458   1.413       .  A
C4454      C4455   1.398       .  A
C4454      H4459   1.084       .  S
C4455      C4456   1.416       .  A
C4455      O4460   1.372       .  S
C4456      C4457   1.400       .  A
C4457      C4458   1.406       .  A
C4457      H4461   1.083       .  S
C4458      O4462   1.371       .  S
O4460      H4464   0.992       .  S
O4462      H4463   0.992       .  S
