geometry optimzed in LAMMPS
_audit_creation_date              2020-11-30 
_audit_creation_method            'lammps2cif' 
_symmetry_space_group_name_H-M    'P1' 
_symmetry_Int_Tables_number       1 
_symmetry_cell_setting            triclinic 
loop_ 
_symmetry_equiv_pos_as_xyz 
  x,y,z 
_cell_length_a                    46.28714618 
_cell_length_b                    47.02596084930552 
_cell_length_c                    36.030781367503586 
_cell_angle_alpha                 89.82570765140893 
_cell_angle_beta                  87.26805778292614 
_cell_angle_gamma                 90.02495183034681 
loop_ 
_atom_site_label 
_atom_site_type_symbol 
_atom_site_fract_x 
_atom_site_fract_y 
_atom_site_fract_z 
_atom_site_charge 
O1          O  0.30558044  0.46357561  0.47529361    -0.77600
C2          C  0.24692228  0.49958527  0.39313258     0.83400
O3          O  0.28162442  0.06156429  0.01827663    -0.78700
O4          O  0.18930154  0.03740860  0.47618219    -0.80200
O5          O  0.20955653  0.43631354  0.02025949    -0.80000
O6          O  0.28148582  0.43774512  0.01862245    -0.78600
Zn7        Zn  0.28141761  0.49974865  0.46427536     1.55700
O8          O  0.18905283  0.46204206  0.47662747    -0.80000
Cd9        Cd  0.24511194  0.46330312  0.02964437     1.59700
Cd10       Cd  0.24520979  0.03595664  0.02944408     1.59600
O11         O  0.24577729  0.47568184  0.08545937    -0.80000
O12         O  0.24681608  0.49966168  0.49785867    -1.90500
Cd13       Cd  0.21220445  0.49966559  0.46768424     1.59900
O14         O  0.24584722  0.02348433  0.08529585    -0.80000
O15         O  0.22282143  0.49957032  0.41149558    -0.78600
C16         C  0.30347873  0.05793989  0.49593346     0.83900
C17         C  0.30345193  0.44160254  0.49650860     0.83600
O18         O  0.27095517  0.49964225  0.40919807    -0.77600
C19         C  0.19040264  0.43938320  0.99625370     0.84400
O20         O  0.30555944  0.03606057  0.47472758    -0.77700
C21         C  0.24643823  0.99957797  0.10232853     0.84500
C22         C  0.19067869  0.06004276  0.99567254     0.84800
O23         O  0.20973459  0.06301327  0.01981283    -0.80100
O24         O  0.30558974  0.46364247  0.22523692    -0.77600
C25         C  0.24685163  0.49958934  0.14313668     0.83400
O26         O  0.28164410  0.06159969  0.26823644    -0.78700
O27         O  0.18930501  0.03751507  0.22622423    -0.80200
O28         O  0.20957730  0.43636709  0.27024792    -0.80000
O29         O  0.28150025  0.43781012  0.26856767    -0.78600
Zn30       Zn  0.28140277  0.99980577  0.21422727     1.55700
O31         O  0.18901691  0.46213066  0.22669525    -0.80000
Cd32       Cd  0.24513266  0.46335840  0.27962161     1.59700
Cd33       Cd  0.24523992  0.03600159  0.27945738     1.59600
O34         O  0.24583041  0.47571354  0.33543728    -0.80000
O35         O  0.24681940  0.99972139  0.24785038    -1.90500
Cd36       Cd  0.21217798  0.99974637  0.21772568     1.59900
O37         O  0.24593188  0.02351516  0.33530734    -0.80000
O38         O  0.22275906  0.49961163  0.16152088    -0.78600
C39         C  0.30347222  0.05800746  0.24584131     0.83900
C40         C  0.30346351  0.44166858  0.24645125     0.83600
O41         O  0.27089369  0.49964586  0.15917856    -0.77600
C42         C  0.19039483  0.43945492  0.24628346     0.84400
O43         O  0.30554357  0.03614303  0.22460644    -0.77700
C44         C  0.24651869  0.99960049  0.35232281     0.84500
C45         C  0.19070296  0.06014089  0.24572854     0.84800
O46         O  0.20976421  0.06308155  0.26987027    -0.80100
O47         O  0.40242655  0.02818265  0.03765971    -0.77600
C48         C  0.40058108  0.09420692  0.11115376     0.83400
O49         O  0.33650154  0.09892318  0.48673904    -0.78700
O50         O  0.43655111  0.14686683  0.02153155    -0.80200
O51         O  0.46965705  0.08129634  0.46793733    -0.80000
O52         O  0.42516542  0.02790157  0.48164415    -0.78600
Zn53       Zn  0.38517868  0.06653875  0.04046280     1.55700
O54         O  0.47262821  0.08863696  0.02852425    -0.80000
Cd55       Cd  0.42743772  0.06960112  0.46878308     1.59700
Cd56       Cd  0.37973897  0.11829820  0.47855763     1.59600
O57         O  0.41444430  0.07473549  0.41643334    -0.80000
O58         O  0.40448404  0.09116641  0.50601600    -1.90500
Cd59       Cd  0.43271073  0.10691865  0.03814164     1.59900
O60         O  0.38663365  0.11332862  0.42068802    -0.80000
O61         O  0.42152378  0.10668952  0.09394616    -0.78600
C62         C  0.33012092  0.07444598  0.50174862     0.83900
C63         C  0.41523735  0.01527846  0.51070172     0.83600
O64         O  0.38289153  0.07886105  0.09420540    -0.77600
C65         C  0.48437515  0.08453388  0.49636669     0.84400
O66         O  0.34725073  0.06145014  0.02216227    -0.77700
C67         C  0.39989095  0.09412255  0.40161936     0.84500
C68         C  0.42366074  0.16563281  0.50322140     0.84800
O69         O  0.39935363  0.16045903  0.48798591    -0.80100
O70         O  0.40231501  0.02827282  0.28785431    -0.77600
C71         C  0.40056604  0.09431290  0.36115893     0.83400
O72         O  0.33652224  0.09896503  0.23658002    -0.78700
O73         O  0.43654016  0.14692434  0.27153031    -0.80200
O74         O  0.46962217  0.08132793  0.21786541    -0.80000
O75         O  0.42511132  0.02794998  0.23187227    -0.78600
Zn76       Zn  0.38510263  0.06666250  0.29052125     1.55700
O77         O  0.47263376  0.08870562  0.27843765    -0.80000
Cd78       Cd  0.42738634  0.06960464  0.21882914     1.59700
Cd79       Cd  0.37976673  0.11834346  0.22849069     1.59600
O80         O  0.41430365  0.07458173  0.16648345    -0.80000
O81         O  0.40446370  0.09122310  0.25602763    -1.90500
Cd82       Cd  0.43271793  0.10696238  0.28812099     1.59900
O83         O  0.38674760  0.11335252  0.17063820    -0.80000
O84         O  0.42158602  0.10666739  0.34394148    -0.78600
C85         C  0.33010945  0.07451954  0.25165854     0.83900
C86         C  0.41514956  0.01534885  0.26092923     0.83600
O87         O  0.38276939  0.07908486  0.34422112    -0.77600
C88         C  0.48436264  0.08460297  0.24627110     0.84400
O89         O  0.34719806  0.06156319  0.27216778    -0.77700
C90         C  0.39987762  0.09404038  0.15161700     0.84500
C91         C  0.42366236  0.16568668  0.25319661     0.84800
O92         O  0.39936902  0.16050715  0.23793009    -0.80100
O93         O  0.07694986  0.11079392  0.39659391    -0.77600
C94         C  0.01552732  0.08477374  0.49176228     0.83400
O95         O  0.09976966  0.16263114  0.00157405    -0.78700
O96         O  0.08526184  0.07369117  0.07153876    -0.80200
O97         O  0.11329141  0.02864870  0.45811163    -0.80000
O98         O  0.11120380  0.07777820  0.39296191    -0.78600
Zn99       Zn  0.06631575  0.11070334  0.45161474     1.55700
O100        O  0.07965005  0.02789036  0.00460602    -0.80000
Cd101      Cd  0.11827909  0.07111323  0.44777614     1.59700
Cd102      Cd  0.11636534  0.12060345  0.01299603     1.59600
O103        O  0.15942896  0.08188455  0.45580942    -0.80000
O104        O  0.09368506  0.09391902  0.48239343    -1.90500
Cd105      Cd  0.07316872  0.06898470  0.01842364     1.59900
O106        O  0.15814525  0.09941298  0.01296422    -0.80000
O107        O  0.03019658  0.07728585  0.01895230    -0.78600
C108        C  0.07532983  0.16785537  0.48702977     0.83900
C109        C  0.09455940  0.09521322  0.37772202     0.83600
O110        O  0.02716099  0.09352068  0.46111410    -0.77600
C111        C  0.09653654  0.01540693  0.48115685     0.84400
O112        O  0.06213140  0.14948282  0.46863891    -0.77700
C113        C  0.16908936  0.08247272  0.48806137     0.84500
C114        C  0.09459325  0.09561479  0.08740259     0.84800
O115        O  0.10412789  0.11715237  0.06923069    -0.80100
O116        O  0.07699906  0.11083713  0.14654769    -0.77600
C117        C  0.01551859  0.08487361  0.24165673     0.83400
O118        O  0.09977321  0.16272842  0.25165213    -0.78700
O119        O  0.08519459  0.07375703  0.32149596    -0.80200
O120        O  0.11343736  0.02876842  0.20817019    -0.80000
O121        O  0.11128340  0.07784588  0.14298439    -0.78600
Zn122      Zn  0.06635463  0.11082527  0.20156044     1.55700
O123        O  0.07969785  0.02800306  0.25454538    -0.80000
Cd124      Cd  0.11837185  0.07123989  0.19780448     1.59700
Cd125      Cd  0.11637953  0.12069729  0.26305491     1.59600
O126        O  0.15950764  0.08207099  0.20585491    -0.80000
O127        O  0.09371612  0.09403652  0.23237823    -1.90500
Cd128      Cd  0.07316529  0.06908670  0.26835410     1.59900
O129        O  0.15816965  0.09951014  0.26304970    -0.80000
O130        O  0.03018740  0.07734137  0.26882641    -0.78600
C131        C  0.07537820  0.16797590  0.23700337     0.83900
C132        C  0.09461720  0.09524146  0.12771062     0.83600
O133        O  0.02715563  0.09369290  0.21104600    -0.77600
C134        C  0.09664378  0.01552233  0.23116539     0.84400
O135        O  0.06221452  0.14962273  0.21853853    -0.77700
C136        C  0.16913782  0.08260236  0.23812496     0.84500
C137        C  0.09454833  0.09564655  0.33741137     0.84800
O138        O  0.10412169  0.11719299  0.31928754    -0.80100
O139        O  0.02693676  0.40735495  0.46223144    -0.77600
C140        C  0.09412608  0.40508457  0.37879880     0.83400
O141        O  0.09895026  0.33747660  0.00269424    -0.77500
O142        O  0.15905425  0.41754121  0.45666842    -0.80200
O143        O  0.07942190  0.47233755  0.00480243    -0.80000
O144        O  0.03004116  0.42277416  0.02030670    -0.78600
Zn145      Zn  0.06581637  0.38980773  0.45288795     1.55700
O146        O  0.11341084  0.47139176  0.45872055    -0.80000
Cd147      Cd  0.07301278  0.43130549  0.01932537     1.59700
Cd148      Cd  0.11563341  0.37937491  0.01434805     1.59600
O149        O  0.08546738  0.42679420  0.07234443    -0.80000
O150        O  0.09332371  0.40628923  0.48348760    -1.90500
Cd151      Cd  0.11807473  0.42890554  0.44865822     1.59900
O152        O  0.10315160  0.38287515  0.07054887    -0.80000
O153        O  0.11086168  0.42244641  0.39389981    -0.78600
C154        C  0.07440464  0.33249064  0.48832661     0.83900
C155        C  0.01533537  0.41562523  0.49304459     0.83600
O156        O  0.07644958  0.38956723  0.39781914    -0.77600
C157        C  0.09650596  0.48472412  0.98137398     0.84400
O158        O  0.06120347  0.35108258  0.47018870    -0.77700
C159        C  0.09419711  0.40466792  0.08848205     0.84500
C160        C  0.16869718  0.41702031  0.98893132     0.84800
O161        O  0.15761163  0.40023824  0.01407670    -0.80100
O162        O  0.02693191  0.40747342  0.21208477    -0.77600
C163        C  0.09419308  0.40511069  0.12880487     0.83400
O164        O  0.09894369  0.33755243  0.25264364    -0.78700
O165        O  0.15906639  0.41760258  0.20667915    -0.80200
O166        O  0.07954915  0.47245928  0.25485209    -0.80000
O167        O  0.03001795  0.42302650  0.27010270    -0.78600
Zn168      Zn  0.06582192  0.38989456  0.20286530     1.55700
O169        O  0.11347314  0.47149529  0.20869442    -0.80000
Cd170      Cd  0.07300962  0.43142725  0.26929714     1.59700
Cd171      Cd  0.11563369  0.37944603  0.26431257     1.59600
O172        O  0.08532337  0.42678840  0.32236881    -0.80000
O173        O  0.09332103  0.40638855  0.23348103    -1.90500
Cd174      Cd  0.11809618  0.42899697  0.19865655     1.59900
O175        O  0.10316300  0.38292629  0.32051269    -0.80000
O176        O  0.11089060  0.42251429  0.14389858    -0.78600
C177        C  0.07438186  0.33257876  0.23831189     0.83900
C178        C  0.01532168  0.41583268  0.24285020     0.83600
O179        O  0.07652791  0.38958427  0.14782744    -0.77600
C180        C  0.09661306  0.48483787  0.23139153     0.84400
O181        O  0.06117168  0.35118056  0.22020165    -0.77700
C182        C  0.09411946  0.40467287  0.33847417     0.84500
C183        C  0.16870027  0.41708523  0.23894658     0.84800
O184        O  0.15761481  0.40029580  0.26408134    -0.80100
O185        O  0.38296356  0.42118681  0.09507954    -0.77600
C186        C  0.41519732  0.48467081  0.51086125     0.83400
O187        O  0.33645743  0.40068170  0.48792757    -0.78700
O188        O  0.41450206  0.42504444  0.41726003    -0.80200
O189        O  0.47243136  0.41132088  0.02979090    -0.80000
O190        O  0.42119321  0.39283941  0.09505861    -0.78600
Zn191      Zn  0.38517346  0.43339721  0.04119849     1.55700
O192        O  0.46951809  0.41885693  0.46915972    -0.80000
Cd193      Cd  0.43260713  0.39268586  0.03927372     1.59700
Cd194      Cd  0.37970093  0.38156995  0.47975575     1.59600
O195        O  0.43676136  0.35271156  0.02260188    -0.80000
O196        O  0.40443940  0.40865862  0.50707300    -1.90500
Cd197      Cd  0.42730837  0.43029515  0.46963814     1.59900
O198        O  0.39942546  0.33949638  0.48908512    -0.80000
O199        O  0.42501803  0.47200799  0.48190315    -0.78600
C200        C  0.33009888  0.42520918  0.50256018     0.83900
C201        C  0.40043730  0.40561228  0.11215656     0.83600
O202        O  0.40243318  0.47179463  0.03799221    -0.77600
C203        C  0.48419489  0.41565500  0.49765390     0.84400
O204        O  0.34724087  0.43833372  0.02275145    -0.77700
C205        C  0.42377440  0.33415273  0.50414697     0.84500
C206        C  0.39981309  0.40574825  0.40259875     0.84800
O207        O  0.38641969  0.38662717  0.42183454    -0.80100
O208        O  0.38285906  0.42102195  0.34510057    -0.77600
C209        C  0.41510412  0.48474096  0.26107946     0.83400
O210        O  0.33648623  0.40076448  0.23784866    -0.78700
O211        O  0.41428303  0.42527277  0.16727422    -0.80200
O212        O  0.47244688  0.41152801  0.27961861    -0.80000
O213        O  0.42133758  0.39299689  0.34498877    -0.78600
Zn214      Zn  0.38512776  0.43340606  0.29127379     1.55700
O215        O  0.46946815  0.41906022  0.21899819    -0.80000
Cd216      Cd  0.43267435  0.39282881  0.28918302     1.59700
Cd217      Cd  0.37972950  0.38163715  0.22977102     1.59600
O218        O  0.43684023  0.35283902  0.27253286    -0.80000
O219        O  0.40443312  0.40874957  0.25707164    -1.90500
Cd220      Cd  0.42721513  0.43044713  0.21962530     1.59900
O221        O  0.39943605  0.33957584  0.23916541    -0.80000
O222        O  0.42488690  0.47211242  0.23207492    -0.78600
C223        C  0.33010692  0.42527497  0.25251604     0.83900
C224        C  0.40047124  0.40557037  0.36212988     0.83600
O225        O  0.40237892  0.47183395  0.28821852    -0.77600
C226        C  0.48417887  0.41586859  0.24746813     0.84400
O227        O  0.34721800  0.43837465  0.27277576    -0.77700
C228        C  0.42381502  0.33425371  0.25416163     0.84500
C229        C  0.39975731  0.40584526  0.15262300     0.84800
O230        O  0.38652982  0.38662537  0.17186751    -0.80100
O231        O  0.46375367  0.30635760  0.01858062    -0.77600
C232        C  0.49818234  0.25017045  0.10188388     0.83400
O233        O  0.06164195  0.28559931  0.47116641    -0.78700
O234        O  0.03701483  0.19249643  0.01693407    -0.80200
O235        O  0.43475948  0.21314958  0.47850288    -0.80000
O236        O  0.43438123  0.28694616  0.47866455    -0.78600
Zn237      Zn  0.49936954  0.28329650  0.02865359     1.55700
O238        O  0.46355784  0.19286537  0.01876203    -0.80000
Cd239      Cd  0.46058612  0.25025016  0.46770903     1.59700
Cd240      Cd  0.03521103  0.25034719  0.46302421     1.59600
O241        O  0.47359352  0.25046569  0.41108346    -0.80000
O242        O  0.49848092  0.25057715  0.49663719    -1.90500
Cd243      Cd  0.49986231  0.21664649  0.02911829     1.59900
O244        O  0.02223795  0.25068886  0.40824695    -0.80000
O245        O  0.49862299  0.22628822  0.08536605    -0.78600
C246        C  0.05772148  0.30610100  0.49384075     0.83900
C247        C  0.44065296  0.30719307  0.50042508     0.83600
O248        O  0.49836070  0.27354104  0.08390762    -0.77600
C249        C  0.44068538  0.19257218  0.50010593     0.84400
O250        O  0.03552218  0.30715252  0.01629023    -0.77700
C251        C  0.99796159  0.25061335  0.39269362     0.84500
C252        C  0.05845138  0.19401926  0.49332015     0.84800
O253        O  0.06130502  0.21460642  0.47037590    -0.80100
O254        O  0.46376838  0.30643254  0.26862287    -0.77600
C255        C  0.49821060  0.25018062  0.35188527     0.83400
O256        O  0.06159927  0.28570606  0.22110254    -0.78700
O257        O  0.03704331  0.19258873  0.26689755    -0.80200
O258        O  0.43474051  0.21322285  0.22851797    -0.80000
O259        O  0.43439216  0.28704030  0.22869054    -0.78600
Zn260      Zn  0.49937662  0.28335234  0.27867902     1.55700
O261        O  0.46357658  0.19291010  0.26870884    -0.80000
Cd262      Cd  0.46056817  0.25032581  0.21771378     1.59700
Cd263      Cd  0.03519221  0.25043438  0.21299440     1.59600
O264        O  0.47356440  0.25051195  0.16108175    -0.80000
O265        O  0.49847199  0.25065074  0.24662628    -1.90500
Cd266      Cd  0.49987125  0.21670627  0.27907845     1.59900
O267        O  0.02220917  0.25072701  0.15823330    -0.80000
O268        O  0.49863806  0.22631145  0.33533673    -0.78600
C269        C  0.05770336  0.30618516  0.24381761     0.83900
C270        C  0.44067244  0.30728116  0.25045894     0.83600
O271        O  0.49838687  0.27356456  0.33393568    -0.77600
C272        C  0.44068837  0.19262750  0.25008250     0.84400
O273        O  0.03552924  0.30721328  0.26631158    -0.77700
C274        C  0.49793119  0.25063817  0.14268773     0.84500
C275        C  0.05848326  0.19412980  0.24329246     0.84800
O276        O  0.06132196  0.21471914  0.22034950    -0.80100
O277        O  0.30558045  0.46357560  0.97529362    -0.77600
C278        C  0.24692231  0.49958526  0.89313256     0.83400
O279        O  0.28162440  0.06156436  0.51827658    -0.78700
O280        O  0.18930149  0.03740851  0.97618240    -0.80200
O281        O  0.20955656  0.43631351  0.52025949    -0.80000
O282        O  0.28148582  0.43774514  0.51862243    -0.78600
Zn283      Zn  0.28141773  0.49974873  0.96427534     1.55700
O284        O  0.18905280  0.46204199  0.97662740    -0.80000
Cd285      Cd  0.24511205  0.46330301  0.52964435     1.59700
Cd286      Cd  0.24520991  0.03595654  0.52944408     1.59600
O287        O  0.24577745  0.47568187  0.58545935    -0.80000
O288        O  0.24681618  0.49966177  0.99785867    -1.90500
Cd289      Cd  0.21220457  0.49966547  0.96768423     1.59900
O290        O  0.24584721  0.02348426  0.58529594    -0.80000
O291        O  0.22282146  0.49957021  0.91149555    -0.78600
C292        C  0.30347871  0.05793990  0.99593345     0.83900
C293        C  0.30345192  0.44160250  0.99650858     0.83600
O294        O  0.27095519  0.49964234  0.90919806    -0.77600
C295        C  0.19040268  0.43938324  0.49625371     0.84400
O296        O  0.30555945  0.03606062  0.97472750    -0.77700
C297        C  0.24643824  0.99957789  0.60232858     0.84500
C298        C  0.19067873  0.06004274  0.49567248     0.84800
O299        O  0.20973458  0.06301312  0.51981287    -0.80100
O300        O  0.30558974  0.46364236  0.72523691    -0.77600
C301        C  0.24685161  0.49958936  0.64313668     0.83400
O302        O  0.28164413  0.06159977  0.76823631    -0.78700
O303        O  0.18930498  0.03751512  0.72622419    -0.80200
O304        O  0.20957738  0.43636712  0.77024792    -0.80000
O305        O  0.28150028  0.43781007  0.76856775    -0.78600
Zn306      Zn  0.28140288  0.99980566  0.71422728     1.55700
O307        O  0.18901707  0.46213066  0.72669518    -0.80000
Cd308      Cd  0.24513262  0.46335847  0.77962159     1.59700
Cd309      Cd  0.24524004  0.03600165  0.77945735     1.59600
O310        O  0.24583035  0.47571350  0.83543728    -0.80000
O311        O  0.24681944  0.99972133  0.74785039    -1.90500
Cd312      Cd  0.21217809  0.99974643  0.71772565     1.59900
O313        O  0.24593204  0.02351510  0.83530730    -0.80000
O314        O  0.22275902  0.49961170  0.66152084    -0.78600
C315        C  0.30347226  0.05800748  0.74584125     0.83900
C316        C  0.30346353  0.44166852  0.74645130     0.83600
O317        O  0.27089365  0.49964591  0.65917859    -0.77600
C318        C  0.19039492  0.43945493  0.74628344     0.84400
O319        O  0.30554368  0.03614297  0.72460650    -0.77700
C320        C  0.24651874  0.99960040  0.85232277     0.84500
C321        C  0.19070291  0.06014092  0.74572855     0.84800
O322        O  0.20976418  0.06308160  0.76987025    -0.80100
O323        O  0.40242653  0.02818265  0.53765968    -0.77600
C324        C  0.40058103  0.09420696  0.61115374     0.83400
O325        O  0.33650147  0.09892322  0.98673906    -0.78700
O326        O  0.43655121  0.14686681  0.52153147    -0.80200
O327        O  0.46965700  0.08129640  0.96793730    -0.80000
O328        O  0.42516534  0.02790164  0.98164412    -0.78600
Zn329      Zn  0.38517880  0.06653881  0.54046277     1.55700
O330        O  0.47262825  0.08863708  0.52852427    -0.80000
Cd331      Cd  0.42743764  0.06960121  0.96878307     1.59700
Cd332      Cd  0.37973890  0.11829828  0.97855761     1.59600
O333        O  0.41444423  0.07473553  0.91643336    -0.80000
O334        O  0.40448394  0.09116648  0.00601604    -1.90500
Cd335      Cd  0.43271068  0.10691871  0.53814162     1.59900
O336        O  0.38663358  0.11332865  0.92068802    -0.80000
O337        O  0.42152371  0.10668960  0.59394615    -0.78600
C338        C  0.33012086  0.07444600  0.00174863     0.83900
C339        C  0.41523732  0.01527850  0.01070171     0.83600
O340        O  0.38289147  0.07886112  0.59420535    -0.77600
C341        C  0.48437511  0.08453384  0.99636667     0.84400
O342        O  0.34725083  0.06145015  0.52216225    -0.77700
C343        C  0.39989085  0.09412257  0.90161937     0.84500
C344        C  0.42366070  0.16563283  0.00322143     0.84800
O345        O  0.39935364  0.16045908  0.98798582    -0.80100
O346        O  0.40231499  0.02827283  0.78785427    -0.77600
C347        C  0.40056596  0.09431290  0.86115894     0.83400
O348        O  0.33652227  0.09896504  0.73658004    -0.78700
O349        O  0.43654011  0.14692428  0.77153028    -0.80200
O350        O  0.46962216  0.08132785  0.71786543    -0.80000
O351        O  0.42511128  0.02794999  0.73187224    -0.78600
Zn352      Zn  0.38510255  0.06666254  0.79052124     1.55700
O353        O  0.47263379  0.08870554  0.77843765    -0.80000
Cd354      Cd  0.42738628  0.06960470  0.71882913     1.59700
Cd355      Cd  0.37976669  0.11834336  0.72849068     1.59600
O356        O  0.41430377  0.07458178  0.66648339    -0.80000
O357        O  0.40446361  0.09122304  0.75602772    -1.90500
Cd358      Cd  0.43271787  0.10696226  0.78812098     1.59900
O359        O  0.38674749  0.11335239  0.67063821    -0.80000
O360        O  0.42158591  0.10666744  0.84394148    -0.78600
C361        C  0.33010946  0.07451955  0.75165852     0.83900
C362        C  0.41514959  0.01534886  0.76092923     0.83600
O363        O  0.38276936  0.07908479  0.84422113    -0.77600
C364        C  0.48436265  0.08460296  0.74627108     0.84400
O365        O  0.34719802  0.06156314  0.77216775    -0.77700
C366        C  0.39987759  0.09404035  0.65161697     0.84500
C367        C  0.42366235  0.16568667  0.75319661     0.84800
O368        O  0.39936903  0.16050715  0.73793002    -0.80100
O369        O  0.07694980  0.11079383  0.89659388    -0.77600
C370        C  0.01552731  0.08477371  0.99176226     0.83400
O371        O  0.09976962  0.16263119  0.50157407    -0.78700
O372        O  0.08526174  0.07369118  0.57153877    -0.80200
O373        O  0.11329140  0.02864868  0.95811171    -0.80000
O374        O  0.11120374  0.07777810  0.89296188    -0.78600
Zn375      Zn  0.06631570  0.11070340  0.95161474     1.55700
O376        O  0.07965005  0.02789030  0.50460596    -0.80000
Cd377      Cd  0.11827902  0.07111328  0.94777613     1.59700
Cd378      Cd  0.11636529  0.12060351  0.51299601     1.59600
O379        O  0.15942889  0.08188460  0.95580948    -0.80000
O380        O  0.09368511  0.09391909  0.98239340    -1.90500
Cd381      Cd  0.07316867  0.06898458  0.51842362     1.59900
O382        O  0.15814533  0.09941305  0.51296411    -0.80000
O383        O  0.03019661  0.07728577  0.51895226    -0.78600
C384        C  0.07532983  0.16785530  0.98702985     0.83900
C385        C  0.09455938  0.09521316  0.87772200     0.83600
O386        O  0.02716100  0.09352070  0.96111412    -0.77600
C387        C  0.09653650  0.01540693  0.98115690     0.84400
O388        O  0.06213133  0.14948275  0.96863909    -0.77700
C389        C  0.16908930  0.08247272  0.98806143     0.84500
C390        C  0.09459320  0.09561482  0.58740257     0.84800
O391        O  0.10412786  0.11715237  0.56923063    -0.80100
O392        O  0.07699906  0.11083721  0.64654765    -0.77600
C393        C  0.01551855  0.08487366  0.74165672     0.83400
O394        O  0.09977327  0.16272843  0.75165212    -0.78700
O395        O  0.08519471  0.07375706  0.82149587    -0.80200
O396        O  0.11343741  0.02876848  0.70817023    -0.80000
O397        O  0.11128338  0.07784595  0.64298438    -0.78600
Zn398      Zn  0.06635473  0.11082534  0.70156042     1.55700
O399        O  0.07969779  0.02800306  0.75454532    -0.80000
Cd400      Cd  0.11837179  0.07123996  0.69780445     1.59700
Cd401      Cd  0.11637964  0.12069735  0.76305489     1.59600
O402        O  0.15950756  0.08207108  0.70585496    -0.80000
O403        O  0.09371611  0.09403651  0.73237825    -1.90500
Cd404      Cd  0.07316523  0.06908675  0.76835408     1.59900
O405        O  0.15816963  0.09951014  0.76304980    -0.80000
O406        O  0.03018734  0.07734129  0.76882637    -0.78600
C407        C  0.07537825  0.16797591  0.73700341     0.83900
C408        C  0.09461718  0.09524153  0.62771059     0.83600
O409        O  0.02715561  0.09369301  0.71104602    -0.77600
C410        C  0.09664379  0.01552236  0.73116540     0.84400
O411        O  0.06221460  0.14962277  0.71853848    -0.77700
C412        C  0.16913774  0.08260237  0.73812502     0.84500
C413        C  0.09454839  0.09564658  0.83741134     0.84800
O414        O  0.10412166  0.11719309  0.81928755    -0.80100
O415        O  0.02693681  0.40735500  0.96223145    -0.77600
C416        C  0.09412611  0.40508455  0.87879878     0.83400
O417        O  0.09895024  0.33747666  0.50269426    -0.77500
O418        O  0.15905418  0.41754112  0.95666842    -0.80200
O419        O  0.07942198  0.47233757  0.50480242    -0.80000
O420        O  0.03004111  0.42277426  0.52030662    -0.78600
Zn421      Zn  0.06581632  0.38980762  0.95288793     1.55700
O422        O  0.11341078  0.47139170  0.95872057    -0.80000
Cd423      Cd  0.07301273  0.43130555  0.51932535     1.59700
Cd424      Cd  0.11563354  0.37937497  0.51434804     1.59600
O425        O  0.08546732  0.42679419  0.57234441    -0.80000
O426        O  0.09332365  0.40628922  0.98348755    -1.90500
Cd427      Cd  0.11807466  0.42890559  0.94865819     1.59900
O428        O  0.10315168  0.38287519  0.57054889    -0.80000
O429        O  0.11086169  0.42244641  0.89389980    -0.78600
C430        C  0.07440467  0.33249056  0.98832660     0.83900
C431        C  0.01533542  0.41562519  0.99304464     0.83600
O432        O  0.07644959  0.38956722  0.89781912    -0.77600
C433        C  0.09650600  0.48472417  0.48137396     0.84400
O434        O  0.06120346  0.35108248  0.97018870    -0.77700
C435        C  0.09419706  0.40466793  0.58848205     0.84500
C436        C  0.16869726  0.41702037  0.48893130     0.84800
O437        O  0.15761174  0.40023828  0.51407668    -0.80100
O438        O  0.02693189  0.40747349  0.71208476    -0.77600
C439        C  0.09419302  0.40511076  0.62880489     0.83400
O440        O  0.09894374  0.33755239  0.75264359    -0.78700
O441        O  0.15906651  0.41760263  0.70667911    -0.80200
O442        O  0.07954920  0.47245935  0.75485215    -0.80000
O443        O  0.03001788  0.42302659  0.77010268    -0.78600
Zn444      Zn  0.06582201  0.38989462  0.70286530     1.55700
O445        O  0.11347322  0.47149528  0.70869448    -0.80000
Cd446      Cd  0.07300955  0.43142732  0.76929713     1.59700
Cd447      Cd  0.11563364  0.37944594  0.76431254     1.59600
O448        O  0.08532345  0.42678834  0.82236875    -0.80000
O449        O  0.09332102  0.40638859  0.73348104    -1.90500
Cd450      Cd  0.11809630  0.42899687  0.69865653     1.59900
O451        O  0.10316314  0.38292625  0.82051269    -0.80000
O452        O  0.11089056  0.42251435  0.64389855    -0.78600
C453        C  0.07438188  0.33257872  0.73831188     0.83900
C454        C  0.01532163  0.41583275  0.74285018     0.83600
O455        O  0.07652788  0.38958435  0.64782752    -0.77600
C456        C  0.09661313  0.48483788  0.73139155     0.84400
O457        O  0.06117170  0.35118051  0.72020162    -0.77700
C458        C  0.09411955  0.40467283  0.83847414     0.84500
C459        C  0.16870030  0.41708528  0.73894658     0.84800
O460        O  0.15761474  0.40029587  0.76408132    -0.80100
O461        O  0.38296347  0.42118672  0.59507950    -0.77600
C462        C  0.41519727  0.48467083  0.01086124     0.83400
O463        O  0.33645737  0.40068163  0.98792756    -0.78700
O464        O  0.41450213  0.42504443  0.91726001    -0.80200
O465        O  0.47243134  0.41132095  0.52979082    -0.80000
O466        O  0.42119329  0.39283953  0.59505860    -0.78600
Zn467      Zn  0.38517341  0.43339725  0.54119846     1.55700
O468        O  0.46951808  0.41885700  0.96915983    -0.80000
Cd469      Cd  0.43260707  0.39268593  0.53927370     1.59700
Cd470      Cd  0.37970088  0.38157000  0.97975574     1.59600
O471        O  0.43676137  0.35271163  0.52260188    -0.80000
O472        O  0.40443943  0.40865862  0.00707302    -1.90500
Cd473      Cd  0.42730832  0.43029504  0.96963812     1.59900
O474        O  0.39942541  0.33949633  0.98908515    -0.80000
O475        O  0.42501797  0.47200794  0.98190319    -0.78600
C476        C  0.33009886  0.42520911  0.00256016     0.83900
C477        C  0.40043733  0.40561230  0.61215654     0.83600
O478        O  0.40243328  0.47179455  0.53799221    -0.77600
C479        C  0.48419490  0.41565502  0.99765399     0.84400
O480        O  0.34724090  0.43833382  0.52275141    -0.77700
C481        C  0.42377437  0.33415266  0.00414699     0.84500
C482        C  0.39981312  0.40574825  0.90259874     0.84800
O483        O  0.38641971  0.38662719  0.92183452    -0.80100
O484        O  0.38285907  0.42102197  0.84510060    -0.77600
C485        C  0.41510416  0.48474095  0.76107945     0.83400
O486        O  0.33648629  0.40076451  0.73784862    -0.78700
O487        O  0.41428300  0.42527284  0.66727420    -0.80200
O488        O  0.47244682  0.41152811  0.77961858    -0.80000
O489        O  0.42133759  0.39299692  0.84498882    -0.78600
Zn490      Zn  0.38512786  0.43340613  0.79127377     1.55700
O491        O  0.46946809  0.41906010  0.71899814    -0.80000
Cd492      Cd  0.43267428  0.39282888  0.78918301     1.59700
Cd493      Cd  0.37972943  0.38163703  0.72977099     1.59600
O494        O  0.43684025  0.35283908  0.77253277    -0.80000
O495        O  0.40443304  0.40874948  0.75707161    -1.90500
Cd496      Cd  0.42721506  0.43044701  0.71962528     1.59900
O497        O  0.39943602  0.33957579  0.73916545    -0.80000
O498        O  0.42488688  0.47211235  0.73207492    -0.78600
C499        C  0.33010696  0.42527498  0.75251607     0.83900
C500        C  0.40047124  0.40557040  0.86212991     0.83600
O501        O  0.40237892  0.47183402  0.78821850    -0.77600
C502        C  0.48417882  0.41586862  0.74746809     0.84400
O503        O  0.34721802  0.43837469  0.77277579    -0.77700
C504        C  0.42381503  0.33425374  0.75416162     0.84500
C505        C  0.39975731  0.40584530  0.65262297     0.84800
O506        O  0.38652979  0.38662544  0.67186749    -0.80100
O507        O  0.46375367  0.30635762  0.51858057    -0.77600
C508        C  0.49818242  0.25017045  0.60188386     0.83400
O509        O  0.06164207  0.28559924  0.97116642    -0.78700
O510        O  0.03701485  0.19249653  0.51693409    -0.80200
O511        O  0.43475954  0.21314960  0.97850289    -0.80000
O512        O  0.43438131  0.28694619  0.97866448    -0.78600
Zn513      Zn  0.49936966  0.28329641  0.52865357     1.55700
O514        O  0.46355781  0.19286543  0.51876201    -0.80000
Cd515      Cd  0.46058607  0.25025023  0.96770901     1.59700
Cd516      Cd  0.03521116  0.25034724  0.96302418     1.59600
O517        O  0.47359346  0.25046576  0.91108341    -0.80000
O518        O  0.49848085  0.25057720  0.99663720    -1.90500
Cd519      Cd  0.49986225  0.21664656  0.52911827     1.59900
O520        O  0.02223796  0.25068876  0.90824692    -0.80000
O521        O  0.49862313  0.22628822  0.58536604    -0.78600
C522        C  0.05772156  0.30610093  0.99384075     0.83900
C523        C  0.44065298  0.30719305  0.00042510     0.83600
O524        O  0.49836067  0.27354104  0.58390759    -0.77600
C525        C  0.44068540  0.19257217  0.00010595     0.84400
O526        O  0.03552211  0.30715258  0.51629024    -0.77700
C527        C  0.99796159  0.25061325  0.89269360     0.84500
C528        C  0.05845136  0.19401919  0.99332017     0.84800
O529        O  0.06130499  0.21460633  0.97037589    -0.80100
O530        O  0.46376840  0.30643262  0.76862280    -0.77600
C531        C  0.49821059  0.25018062  0.85188524     0.83400
O532        O  0.06159926  0.28570605  0.72110267    -0.78700
O533        O  0.03704329  0.19258874  0.76689759    -0.80200
O534        O  0.43474055  0.21322277  0.72851786    -0.80000
O535        O  0.43439214  0.28704032  0.72869055    -0.78600
Zn536      Zn  0.49937657  0.28335240  0.77867900     1.55700
O537        O  0.46357654  0.19291014  0.76870890    -0.80000
Cd538      Cd  0.46056812  0.25032570  0.71771375     1.59700
Cd539      Cd  0.03519231  0.25043444  0.71299439     1.59600
O540        O  0.47356447  0.25051187  0.66108172    -0.80000
O541        O  0.49847199  0.25065072  0.74662625    -1.90500
Cd542      Cd  0.49987119  0.21670634  0.77907843     1.59900
O543        O  0.02220912  0.25072695  0.65823329    -0.80000
O544        O  0.49863802  0.22631147  0.83533667    -0.78600
C545        C  0.05770335  0.30618516  0.74381770     0.83900
C546        C  0.44067245  0.30728122  0.75045891     0.83600
O547        O  0.49838683  0.27356458  0.83393569    -0.77600
C548        C  0.44068837  0.19262749  0.75008251     0.84400
O549        O  0.03552917  0.30721336  0.76631157    -0.77700
C550        C  0.49793126  0.25063814  0.64268771     0.84500
C551        C  0.05848326  0.19412982  0.74329250     0.84800
O552        O  0.06132194  0.21471915  0.72034955    -0.80100
O553        O  0.30558045  0.96357559  0.47529361    -0.77600
C554        C  0.24692227  0.99958529  0.39313258     0.83400
O555        O  0.28162441  0.56156432  0.01827664    -0.78700
O556        O  0.18930155  0.53740862  0.47618222    -0.80200
O557        O  0.20955652  0.93631343  0.02025946    -0.80000
O558        O  0.28148583  0.93774511  0.01862248    -0.78600
Zn559      Zn  0.28141762  0.99974869  0.46427536     1.55700
O560        O  0.18905283  0.96204206  0.47662747    -0.80000
Cd561      Cd  0.24511193  0.96330296  0.02964438     1.59700
Cd562      Cd  0.24520979  0.53595668  0.02944409     1.59600
O563        O  0.24577745  0.97568185  0.08545933    -0.80000
O564        O  0.24681617  0.99966171  0.49785866    -1.90500
Cd565      Cd  0.21220446  0.99966562  0.46768425     1.59900
O566        O  0.24584725  0.52348430  0.08529584    -0.80000
O567        O  0.22282142  0.99957036  0.41149558    -0.78600
C568        C  0.30347873  0.55793988  0.49593347     0.83900
C569        C  0.30345192  0.94160251  0.49650858     0.83600
O570        O  0.27095516  0.99964228  0.40919807    -0.77600
C571        C  0.19040263  0.93938318  0.99625370     0.84400
O572        O  0.30555943  0.53606056  0.47472758    -0.77700
C573        C  0.24643821  0.49957794  0.10232855     0.84500
C574        C  0.19067872  0.56004277  0.99567254     0.84800
O575        O  0.20973459  0.56301329  0.01981283    -0.80100
O576        O  0.30558971  0.96364249  0.22523697    -0.77600
C577        C  0.24685163  0.99958936  0.14313663     0.83400
O578        O  0.28164409  0.56159973  0.26823644    -0.78700
O579        O  0.18930501  0.53751510  0.22622423    -0.80200
O580        O  0.20957730  0.93636713  0.27024792    -0.80000
O581        O  0.28150023  0.93781003  0.26856763    -0.78600
Zn582      Zn  0.28140278  0.49980574  0.21422729     1.55700
O583        O  0.18901690  0.96213070  0.22669525    -0.80000
Cd584      Cd  0.24513266  0.96335843  0.27962161     1.59700
Cd585      Cd  0.24523992  0.53600162  0.27945738     1.59600
O586        O  0.24583040  0.97571357  0.33543727    -0.80000
O587        O  0.24681940  0.49972137  0.24785039    -1.90500
Cd588      Cd  0.21217798  0.49974634  0.21772568     1.59900
O589        O  0.24593187  0.52351513  0.33530731    -0.80000
O590        O  0.22275907  0.99961166  0.16152086    -0.78600
C591        C  0.30347221  0.55800749  0.24584130     0.83900
C592        C  0.30346351  0.94166858  0.24645125     0.83600
O593        O  0.27089371  0.99964590  0.15917845    -0.77600
C594        C  0.19039482  0.93945496  0.24628346     0.84400
O595        O  0.30554355  0.53614305  0.22460643    -0.77700
C596        C  0.24651869  0.49960046  0.35232280     0.84500
C597        C  0.19070295  0.56014092  0.24572854     0.84800
O598        O  0.20976420  0.56308158  0.26987027    -0.80100
O599        O  0.40242656  0.52818263  0.03765967    -0.77600
C600        C  0.40058108  0.59420697  0.11115376     0.83400
O601        O  0.33650152  0.59892320  0.48673904    -0.78700
O602        O  0.43655112  0.64686679  0.02153153    -0.80200
O603        O  0.46965704  0.58129637  0.46793733    -0.80000
O604        O  0.42516542  0.52790159  0.48164417    -0.78600
Zn605      Zn  0.38517884  0.56653877  0.04046280     1.55700
O606        O  0.47262820  0.58863702  0.02852424    -0.80000
Cd607      Cd  0.42743771  0.56960116  0.46878308     1.59700
Cd608      Cd  0.37973896  0.61829824  0.47855763     1.59600
O609        O  0.41444429  0.57473553  0.41643334    -0.80000
O610        O  0.40448401  0.59116639  0.50601600    -1.90500
Cd611      Cd  0.43271072  0.60691867  0.03814164     1.59900
O612        O  0.38663364  0.61332866  0.42068802    -0.80000
O613        O  0.42152378  0.60668956  0.09394617    -0.78600
C614        C  0.33012092  0.57444599  0.50174862     0.83900
C615        C  0.41523735  0.51527842  0.51070172     0.83600
O616        O  0.38289154  0.57886109  0.09420539    -0.77600
C617        C  0.48437515  0.58453392  0.49636669     0.84400
O618        O  0.34725076  0.56145016  0.02216231    -0.77700
C619        C  0.39989094  0.59412259  0.40161936     0.84500
C620        C  0.42366074  0.66563283  0.50322141     0.84800
O621        O  0.39935362  0.66045907  0.48798592    -0.80100
O622        O  0.40231500  0.52827284  0.28785431    -0.77600
C623        C  0.40056604  0.59431294  0.36115893     0.83400
O624        O  0.33652224  0.59896502  0.23658007    -0.78700
O625        O  0.43654016  0.64692430  0.27153026    -0.80200
O626        O  0.46962217  0.58132797  0.21786541    -0.80000
O627        O  0.42511131  0.52795000  0.23187227    -0.78600
Zn628      Zn  0.38510261  0.56666251  0.29052125     1.55700
O629        O  0.47263376  0.58870566  0.27843766    -0.80000
Cd630      Cd  0.42738634  0.56960466  0.21882913     1.59700
Cd631      Cd  0.37976674  0.61834332  0.22849069     1.59600
O632        O  0.41430365  0.57458176  0.16648345    -0.80000
O633        O  0.40446370  0.59122301  0.25602765    -1.90500
Cd634      Cd  0.43271792  0.60696240  0.28812099     1.59900
O635        O  0.38674759  0.61335253  0.17063820    -0.80000
O636        O  0.42158602  0.60666743  0.34394148    -0.78600
C637        C  0.33010944  0.57451952  0.25165855     0.83900
C638        C  0.41514955  0.51534886  0.26092924     0.83600
O639        O  0.38276938  0.57908490  0.34422112    -0.77600
C640        C  0.48436263  0.58460300  0.24627110     0.84400
O641        O  0.34719805  0.56156311  0.27216774    -0.77700
C642        C  0.39987761  0.59404041  0.15161700     0.84500
C643        C  0.42366235  0.66568667  0.25319660     0.84800
O644        O  0.39936900  0.66050712  0.23793011    -0.80100
O645        O  0.07694991  0.61079391  0.39659392    -0.77600
C646        C  0.01552732  0.58477370  0.49176227     0.83400
O647        O  0.09976965  0.66263118  0.00157405    -0.78700
O648        O  0.08526180  0.57369114  0.07153878    -0.80200
O649        O  0.11329139  0.52864874  0.45811166    -0.80000
O650        O  0.11120375  0.57777808  0.39296189    -0.78600
Zn651      Zn  0.06631574  0.61070336  0.45161474     1.55700
O652        O  0.07965004  0.52789025  0.00460604    -0.80000
Cd653      Cd  0.11827908  0.57111327  0.44777614     1.59700
Cd654      Cd  0.11636534  0.62060348  0.01299603     1.59600
O655        O  0.15942897  0.58188458  0.45580943    -0.80000
O656        O  0.09368504  0.59391902  0.48239341    -1.90500
Cd657      Cd  0.07316872  0.56898455  0.01842364     1.59900
O658        O  0.15814528  0.59941299  0.01296421    -0.80000
O659        O  0.03019657  0.57728570  0.01895226    -0.78600
C660        C  0.07532988  0.66785528  0.48702981     0.83900
C661        C  0.09455938  0.59521316  0.37772202     0.83600
O662        O  0.02716098  0.59352068  0.46111411    -0.77600
C663        C  0.09653651  0.51540696  0.48115684     0.84400
O664        O  0.06213142  0.64948275  0.46863895    -0.77700
C665        C  0.16908938  0.58247275  0.48806138     0.84500
C666        C  0.09459323  0.59561477  0.08740259     0.84800
O667        O  0.10412792  0.61715232  0.06923066    -0.80100
O668        O  0.07699906  0.61083717  0.14654768    -0.77600
C669        C  0.01551858  0.58487360  0.24165670     0.83400
O670        O  0.09977321  0.66272846  0.25165213    -0.78700
O671        O  0.08519459  0.57375702  0.32149593    -0.80200
O672        O  0.11343735  0.52876844  0.20817019    -0.80000
O673        O  0.11128340  0.57784592  0.14298440    -0.78600
Zn674      Zn  0.06635462  0.61082531  0.20156044     1.55700
O675        O  0.07969785  0.52800308  0.25454538    -0.80000
Cd676      Cd  0.11837185  0.57123993  0.19780448     1.59700
Cd677      Cd  0.11637951  0.62069733  0.26305492     1.59600
O678        O  0.15950763  0.58207103  0.20585491    -0.80000
O679        O  0.09371611  0.59403656  0.23237823    -1.90500
Cd680      Cd  0.07316529  0.56908673  0.26835410     1.59900
O681        O  0.15816964  0.59951018  0.26304971    -0.80000
O682        O  0.03018738  0.57734125  0.26882637    -0.78600
C683        C  0.07537820  0.66797591  0.23700337     0.83900
C684        C  0.09461719  0.59524148  0.12771062     0.83600
O685        O  0.02715564  0.59369295  0.21104603    -0.77600
C686        C  0.09664378  0.51552234  0.23116540     0.84400
O687        O  0.06221452  0.64962274  0.21853852    -0.77700
C688        C  0.16913782  0.58260240  0.23812496     0.84500
C689        C  0.09454829  0.59564654  0.33741137     0.84800
O690        O  0.10412152  0.61719305  0.31928756    -0.80100
O691        O  0.02693676  0.90735496  0.46223144    -0.77600
C692        C  0.09412606  0.90508453  0.37879881     0.83400
O693        O  0.09895026  0.83747664  0.00269424    -0.77500
O694        O  0.15905424  0.91754125  0.45666842    -0.80200
O695        O  0.07942189  0.97233759  0.00480245    -0.80000
O696        O  0.03004117  0.92277420  0.02030671    -0.78600
Zn697      Zn  0.06581637  0.88980759  0.45288795     1.55700
O698        O  0.11341086  0.97139171  0.45872056    -0.80000
Cd699      Cd  0.07301278  0.93130553  0.01932537     1.59700
Cd700      Cd  0.11563340  0.87937494  0.01434805     1.59600
O701        O  0.08546737  0.92679424  0.07234443    -0.80000
O702        O  0.09332371  0.90628921  0.48348756    -1.90500
Cd703      Cd  0.11807472  0.92890556  0.44865821     1.59900
O704        O  0.10315159  0.88287519  0.07054887    -0.80000
O705        O  0.11086173  0.92244632  0.39389981    -0.78600
C706        C  0.07440462  0.83249063  0.48832665     0.83900
C707        C  0.01533537  0.91562526  0.49304458     0.83600
O708        O  0.07644953  0.88956722  0.39781914    -0.77600
C709        C  0.09650595  0.98472415  0.98137400     0.84400
O710        O  0.06120344  0.85108255  0.47018872    -0.77700
C711        C  0.09419710  0.90466796  0.08848205     0.84500
C712        C  0.16869715  0.91702034  0.98893131     0.84800
O713        O  0.15761161  0.90023827  0.01407669    -0.80100
O714        O  0.02693190  0.90747346  0.21208477    -0.77600
C715        C  0.09419308  0.90511074  0.12880488     0.83400
O716        O  0.09894368  0.83755246  0.25264366    -0.78700
O717        O  0.15906644  0.91760260  0.20667914    -0.80200
O718        O  0.07954915  0.97245930  0.25485209    -0.80000
O719        O  0.03001794  0.92302654  0.27010270    -0.78600
Zn720      Zn  0.06582191  0.88989458  0.20286530     1.55700
O721        O  0.11347316  0.97149531  0.20869442    -0.80000
Cd722      Cd  0.07300961  0.93142728  0.26929714     1.59700
Cd723      Cd  0.11563369  0.87944607  0.26431256     1.59600
O724        O  0.08532336  0.92678839  0.32236882    -0.80000
O725        O  0.09332105  0.90638860  0.23348100    -1.90500
Cd726      Cd  0.11809635  0.92899700  0.19865655     1.59900
O727        O  0.10316300  0.88292628  0.32051267    -0.80000
O728        O  0.11089061  0.92251432  0.14389858    -0.78600
C729        C  0.07438186  0.83257873  0.23831189     0.83900
C730        C  0.01532167  0.91583272  0.24285020     0.83600
O731        O  0.07652791  0.88958431  0.14782744    -0.77600
C732        C  0.09661306  0.98483788  0.23139153     0.84400
O733        O  0.06117166  0.85118050  0.22020161    -0.77700
C734        C  0.09411943  0.90467285  0.33847417     0.84500
C735        C  0.16870027  0.91708527  0.23894659     0.84800
O736        O  0.15761481  0.90029584  0.26408134    -0.80100
O737        O  0.38296350  0.92118672  0.09507951    -0.77600
C738        C  0.41519730  0.98467082  0.51086126     0.83400
O739        O  0.33645739  0.90068160  0.48792757    -0.78700
O740        O  0.41450201  0.92504443  0.41726005    -0.80200
O741        O  0.47243136  0.91132093  0.02979086    -0.80000
O742        O  0.42119324  0.89283945  0.09505862    -0.78600
Zn743      Zn  0.38517345  0.93339724  0.04119849     1.55700
O744        O  0.46951809  0.91885695  0.46915972    -0.80000
Cd745      Cd  0.43260712  0.89268590  0.03927372     1.59700
Cd746      Cd  0.37970093  0.88156996  0.47975575     1.59600
O747        O  0.43676135  0.85271157  0.02260187    -0.80000
O748        O  0.40443939  0.90865859  0.50707300    -1.90500
Cd749      Cd  0.42730837  0.93029501  0.46963814     1.59900
O750        O  0.39942543  0.83949632  0.48908514    -0.80000
O751        O  0.42501801  0.97200798  0.48190317    -0.78600
C752        C  0.33009886  0.92520909  0.50256016     0.83900
C753        C  0.40043730  0.90561227  0.11215656     0.83600
O754        O  0.40243317  0.97179466  0.03799222    -0.77600
C755        C  0.48419489  0.91565504  0.49765389     0.84400
O756        O  0.34724087  0.93833375  0.02275145    -0.77700
C757        C  0.42377439  0.83415270  0.50414698     0.84500
C758        C  0.39981307  0.90574823  0.40259874     0.84800
O759        O  0.38641973  0.88662711  0.42183451    -0.80100
O760        O  0.38285905  0.92102198  0.34510058    -0.77600
C761        C  0.41510412  0.98474095  0.26107945     0.83400
O762        O  0.33648624  0.90076449  0.23784866    -0.78700
O763        O  0.41428302  0.92527279  0.16727422    -0.80200
O764        O  0.47244687  0.91152805  0.27961861    -0.80000
O765        O  0.42133757  0.89299693  0.34498877    -0.78600
Zn766      Zn  0.38512775  0.93340610  0.29127379     1.55700
O767        O  0.46946815  0.91906024  0.21899819    -0.80000
Cd768      Cd  0.43267434  0.89282885  0.28918302     1.59700
Cd769      Cd  0.37972949  0.88163701  0.22977102     1.59600
O770        O  0.43684020  0.85283905  0.27253283    -0.80000
O771        O  0.40443309  0.90874954  0.25707165    -1.90500
Cd772      Cd  0.42721513  0.93044699  0.21962530     1.59900
O773        O  0.39943604  0.83957574  0.23916542    -0.80000
O774        O  0.42488689  0.97211238  0.23207492    -0.78600
C775        C  0.33010693  0.92527500  0.25251602     0.83900
C776        C  0.40047123  0.90557040  0.36212988     0.83600
O777        O  0.40237892  0.97183398  0.28821852    -0.77600
C778        C  0.48417886  0.91586862  0.24746813     0.84400
O779        O  0.34721800  0.93837469  0.27277576    -0.77700
C780        C  0.42381502  0.83425369  0.25416164     0.84500
C781        C  0.39975730  0.90584527  0.15262300     0.84800
O782        O  0.38652982  0.88662539  0.17186752    -0.80100
O783        O  0.46375366  0.80635763  0.01858060    -0.77600
C784        C  0.49818239  0.75017048  0.10188388     0.83400
O785        O  0.06164196  0.78559930  0.47116636    -0.78700
O786        O  0.03701482  0.69249647  0.01693407    -0.80200
O787        O  0.43475947  0.71314961  0.47850289    -0.80000
O788        O  0.43438123  0.78694616  0.47866455    -0.78600
Zn789      Zn  0.49936954  0.78329654  0.02865359     1.55700
O790        O  0.46355782  0.69286539  0.01876203    -0.80000
Cd791      Cd  0.46058612  0.75025020  0.46770903     1.59700
Cd792      Cd  0.03521102  0.75034721  0.46302421     1.59600
O793        O  0.47359351  0.75046569  0.41108346    -0.80000
O794        O  0.49848091  0.75057719  0.49663719    -1.90500
Cd795      Cd  0.49986231  0.71664653  0.02911829     1.59900
O796        O  0.02223794  0.75068888  0.40824695    -0.80000
O797        O  0.49862302  0.72628825  0.08536605    -0.78600
C798        C  0.05772149  0.80610096  0.49384076     0.83900
C799        C  0.44065296  0.80719306  0.50042510     0.83600
O800        O  0.49836073  0.77354108  0.08390763    -0.77600
C801        C  0.44068538  0.69257221  0.50010594     0.84400
O802        O  0.03552217  0.80715256  0.01629023    -0.77700
C803        C  0.99796158  0.75061325  0.39269362     0.84500
C804        C  0.05845138  0.69401918  0.49332023     0.84800
O805        O  0.06130496  0.71460631  0.47037593    -0.80100
O806        O  0.46376838  0.80643258  0.26862288    -0.77600
C807        C  0.49821059  0.75018059  0.35188527     0.83400
O808        O  0.06159926  0.78570605  0.22110253    -0.78700
O809        O  0.03704330  0.69258874  0.26689756    -0.80200
O810        O  0.43474050  0.71322287  0.22851798    -0.80000
O811        O  0.43439217  0.78704033  0.22869055    -0.78600
Zn812      Zn  0.49937661  0.78335238  0.27867903     1.55700
O813        O  0.46357657  0.69291012  0.26870884    -0.80000
Cd814      Cd  0.46056817  0.75032585  0.21771377     1.59700
Cd815      Cd  0.03519220  0.75043440  0.21299440     1.59600
O816        O  0.47356441  0.75051201  0.16108173    -0.80000
O817        O  0.49847198  0.75065078  0.24662628    -1.90500
Cd818      Cd  0.49987125  0.71670631  0.27907844     1.59900
O819        O  0.02220917  0.75072688  0.15823330    -0.80000
O820        O  0.49863805  0.72631143  0.33533670    -0.78600
C821        C  0.05770338  0.80618514  0.24381764     0.83900
C822        C  0.44067245  0.80728119  0.25045895     0.83600
O823        O  0.49838686  0.77356453  0.33393571    -0.77600
C824        C  0.44068837  0.69262751  0.25008250     0.84400
O825        O  0.03552924  0.80721328  0.26631158    -0.77700
C826        C  0.49793122  0.75063816  0.14268773     0.84500
C827        C  0.05848325  0.69412981  0.24329245     0.84800
O828        O  0.06132195  0.71471915  0.22034952    -0.80100
O829        O  0.30558043  0.96357555  0.97529357    -0.77600
C830        C  0.24692231  0.99958519  0.89313256     0.83400
O831        O  0.28162440  0.56156435  0.51827657    -0.78700
O832        O  0.18930150  0.53740852  0.97618240    -0.80200
O833        O  0.20955657  0.93631351  0.52025949    -0.80000
O834        O  0.28148582  0.93774513  0.51862244    -0.78600
Zn835      Zn  0.28141773  0.99974873  0.96427534     1.55700
O836        O  0.18905280  0.96204201  0.97662745    -0.80000
Cd837      Cd  0.24511204  0.96330304  0.52964435     1.59700
Cd838      Cd  0.24520991  0.53595657  0.52944408     1.59600
O839        O  0.24577745  0.97568180  0.58545935    -0.80000
O840        O  0.24681617  0.99966166  0.99785869    -1.90500
Cd841      Cd  0.21220457  0.99966550  0.96768423     1.59900
O842        O  0.24584721  0.52348433  0.58529593    -0.80000
O843        O  0.22282146  0.99957024  0.91149555    -0.78600
C844        C  0.30347871  0.55793991  0.99593347     0.83900
C845        C  0.30345192  0.94160248  0.99650859     0.83600
O846        O  0.27095518  0.99964218  0.90919806    -0.77600
C847        C  0.19040269  0.93938323  0.49625370     0.84400
O848        O  0.30555944  0.53606064  0.97472751    -0.77700
C849        C  0.24643825  0.49957797  0.60232858     0.84500
C850        C  0.19067878  0.56004278  0.49567247     0.84800
O851        O  0.20973467  0.56301318  0.51981281    -0.80100
O852        O  0.30558974  0.96364240  0.72523691    -0.77600
C853        C  0.24685160  0.99958927  0.64313668     0.83400
O854        O  0.28164411  0.56159976  0.76823632    -0.78700
O855        O  0.18930497  0.53751505  0.72622425    -0.80200
O856        O  0.20957736  0.93636711  0.77024792    -0.80000
O857        O  0.28150029  0.93781007  0.76856774    -0.78600
Zn858      Zn  0.28140289  0.49980564  0.71422727     1.55700
O859        O  0.18901706  0.96213070  0.72669519    -0.80000
Cd860      Cd  0.24513261  0.96335832  0.77962159     1.59700
Cd861      Cd  0.24524003  0.53600153  0.77945736     1.59600
O862        O  0.24583034  0.97571349  0.83543724    -0.80000
O863        O  0.24681945  0.49972139  0.74785034    -1.90500
Cd864      Cd  0.21217810  0.49974640  0.71772565     1.59900
O865        O  0.24593203  0.52351509  0.83530728    -0.80000
O866        O  0.22275901  0.99961153  0.66152084    -0.78600
C867        C  0.30347224  0.55800749  0.74584124     0.83900
C868        C  0.30346354  0.94166855  0.74645130     0.83600
O869        O  0.27089365  0.99964593  0.65917858    -0.77600
C870        C  0.19039490  0.93945497  0.74628344     0.84400
O871        O  0.30554367  0.53614298  0.72460649    -0.77700
C872        C  0.24651874  0.49960042  0.85232279     0.84500
C873        C  0.19070292  0.56014088  0.74572854     0.84800
O874        O  0.20976420  0.56308157  0.76987023    -0.80100
O875        O  0.40242651  0.52818254  0.53765969    -0.77600
C876        C  0.40058101  0.59420694  0.61115373     0.83400
O877        O  0.33650148  0.59892317  0.98673900    -0.78700
O878        O  0.43655119  0.64686680  0.52153147    -0.80200
O879        O  0.46965701  0.58129628  0.96793732    -0.80000
O880        O  0.42516548  0.52790163  0.98164417    -0.78600
Zn881      Zn  0.38517880  0.56653867  0.54046278     1.55700
O882        O  0.47262826  0.58863710  0.52852427    -0.80000
Cd883      Cd  0.42743764  0.56960122  0.96878306     1.59700
Cd884      Cd  0.37973889  0.61829829  0.97855761     1.59600
O885        O  0.41444417  0.57473546  0.91643334    -0.80000
O886        O  0.40448395  0.59116644  0.00601602    -1.90500
Cd887      Cd  0.43271067  0.60691857  0.53814162     1.59900
O888        O  0.38663362  0.61332866  0.92068803    -0.80000
O889        O  0.42152367  0.60668961  0.59394614    -0.78600
C890        C  0.33012087  0.57444599  0.00174865     0.83900
C891        C  0.41523736  0.51527848  0.01070171     0.83600
O892        O  0.38289152  0.57886100  0.59420537    -0.77600
C893        C  0.48437510  0.58453384  0.99636667     0.84400
O894        O  0.34725083  0.56145016  0.52216225    -0.77700
C895        C  0.39989086  0.59412256  0.90161937     0.84500
C896        C  0.42366071  0.66563279  0.00322142     0.84800
O897        O  0.39935364  0.66045902  0.98798583    -0.80100
O898        O  0.40231499  0.52827282  0.78785426    -0.77600
C899        C  0.40056595  0.59431292  0.86115894     0.83400
O900        O  0.33652226  0.59896503  0.73658004    -0.78700
O901        O  0.43654011  0.64692431  0.77153028    -0.80200
O902        O  0.46962222  0.58132787  0.71786541    -0.80000
O903        O  0.42511128  0.52795003  0.73187222    -0.78600
Zn904      Zn  0.38510254  0.56666241  0.79052124     1.55700
O905        O  0.47263381  0.58870557  0.77843763    -0.80000
Cd906      Cd  0.42738628  0.56960474  0.71882913     1.59700
Cd907      Cd  0.37976668  0.61834340  0.72849068     1.59600
O908        O  0.41430376  0.57458182  0.66648339    -0.80000
O909        O  0.40446360  0.59122305  0.75602774    -1.90500
Cd910      Cd  0.43271787  0.60696230  0.78812098     1.59900
O911        O  0.38674749  0.61335243  0.67063820    -0.80000
O912        O  0.42158590  0.60666748  0.84394149    -0.78600
C913        C  0.33010946  0.57451955  0.75165852     0.83900
C914        C  0.41514960  0.51534888  0.76092920     0.83600
O915        O  0.38276936  0.57908480  0.84422112    -0.77600
C916        C  0.48436269  0.58460296  0.74627108     0.84400
O917        O  0.34719802  0.56156312  0.77216775    -0.77700
C918        C  0.39987758  0.59404038  0.65161697     0.84500
C919        C  0.42366234  0.66568670  0.75319661     0.84800
O920        O  0.39936903  0.66050718  0.73793002    -0.80100
O921        O  0.07694979  0.61079385  0.89659388    -0.77600
C922        C  0.01552730  0.58477370  0.99176227     0.83400
O923        O  0.09976971  0.66263107  0.50157402    -0.78700
O924        O  0.08526173  0.57369121  0.57153874    -0.80200
O925        O  0.11329139  0.52864870  0.95811172    -0.80000
O926        O  0.11120373  0.57777813  0.89296189    -0.78600
Zn927      Zn  0.06631569  0.61070327  0.95161474     1.55700
O928        O  0.07965003  0.52789034  0.50460598    -0.80000
Cd929      Cd  0.11827902  0.57111332  0.94777613     1.59700
Cd930      Cd  0.11636528  0.62060336  0.51299601     1.59600
O931        O  0.15942892  0.58188460  0.95580948    -0.80000
O932        O  0.09368510  0.59391907  0.98239343    -1.90500
Cd933      Cd  0.07316866  0.56898462  0.51842362     1.59900
O934        O  0.15814534  0.59941306  0.51296412    -0.80000
O935        O  0.03019660  0.57728577  0.51895227    -0.78600
C936        C  0.07532982  0.66785532  0.98702984     0.83900
C937        C  0.09455937  0.59521318  0.87772200     0.83600
O938        O  0.02716099  0.59352072  0.96111415    -0.77600
C939        C  0.09653650  0.51540689  0.98115689     0.84400
O940        O  0.06213133  0.64948275  0.96863908    -0.77700
C941        C  0.16908932  0.58247273  0.98806142     0.84500
C942        C  0.09459321  0.59561481  0.58740257     0.84800
O943        O  0.10412785  0.61715237  0.56923065    -0.80100
O944        O  0.07699902  0.61083704  0.64654767    -0.77600
C945        C  0.01551861  0.58487362  0.74165672     0.83400
O946        O  0.09977328  0.66272838  0.75165212    -0.78700
O947        O  0.08519468  0.57375703  0.82149589    -0.80200
O948        O  0.11343740  0.52876847  0.70817022    -0.80000
O949        O  0.11128354  0.57784598  0.64298435    -0.78600
Zn950      Zn  0.06635473  0.61082537  0.70156042     1.55700
O951        O  0.07969779  0.52800300  0.75454531    -0.80000
Cd952      Cd  0.11837178  0.57123999  0.69780445     1.59700
Cd953      Cd  0.11637963  0.62069720  0.76305489     1.59600
O954        O  0.15950756  0.58207094  0.70585496    -0.80000
O955        O  0.09371608  0.59403648  0.73237825    -1.90500
Cd956      Cd  0.07316524  0.56908661  0.76835408     1.59900
O957        O  0.15816960  0.59951001  0.76304980    -0.80000
O958        O  0.03018742  0.57734128  0.76882635    -0.78600
C959        C  0.07537826  0.66797590  0.73700340     0.83900
C960        C  0.09461723  0.59524147  0.62771059     0.83600
O961        O  0.02715563  0.59369302  0.71104603    -0.77600
C962        C  0.09664379  0.51552233  0.73116539     0.84400
O963        O  0.06221460  0.64962277  0.71853846    -0.77700
C964        C  0.16913775  0.58260229  0.73812500     0.84500
C965        C  0.09454837  0.59564656  0.83741134     0.84800
O966        O  0.10412169  0.61719303  0.81928752    -0.80100
O967        O  0.02693682  0.90735504  0.96223145    -0.77600
C968        C  0.09412610  0.90508459  0.87879878     0.83400
O969        O  0.09895023  0.83747668  0.50269427    -0.77500
O970        O  0.15905417  0.91754116  0.95666841    -0.80200
O971        O  0.07942201  0.97233753  0.50480244    -0.80000
O972        O  0.03004110  0.92277428  0.52030662    -0.78600
Zn973      Zn  0.06581632  0.88980766  0.95288793     1.55700
O974        O  0.11341077  0.97139173  0.95872058    -0.80000
Cd975      Cd  0.07301272  0.93130541  0.51932535     1.59700
Cd976      Cd  0.11563353  0.87937500  0.51434803     1.59600
O977        O  0.08546728  0.92679412  0.57234440    -0.80000
O978        O  0.09332365  0.90628926  0.98348755    -1.90500
Cd979      Cd  0.11807465  0.92890563  0.94865819     1.59900
O980        O  0.10315170  0.88287517  0.57054890    -0.80000
O981        O  0.11086168  0.92244644  0.89389980    -0.78600
C982        C  0.07440467  0.83249060  0.98832660     0.83900
C983        C  0.01533544  0.91562522  0.99304466     0.83600
O984        O  0.07644958  0.88956726  0.89781912    -0.77600
C985        C  0.09650605  0.98472413  0.48137398     0.84400
O986        O  0.06120345  0.85108252  0.97018870    -0.77700
C987        C  0.09419709  0.90466790  0.58848206     0.84500
C988        C  0.16869726  0.91702038  0.48893129     0.84800
O989        O  0.15761172  0.90023831  0.51407668    -0.80100
O990        O  0.02693190  0.90747353  0.71208479    -0.77600
C991        C  0.09419307  0.90511076  0.62880492     0.83400
O992        O  0.09894378  0.83755232  0.75264358    -0.78700
O993        O  0.15906650  0.91760267  0.70667911    -0.80200
O994        O  0.07954919  0.97245938  0.75485215    -0.80000
O995        O  0.03001788  0.92302663  0.77010270    -0.78600
Zn996      Zn  0.06582200  0.88989465  0.70286552     1.55700
O997        O  0.11347322  0.97149532  0.70869448    -0.80000
Cd998      Cd  0.07300955  0.93142736  0.76929713     1.59700
Cd999      Cd  0.11563363  0.87944596  0.76431254     1.59600
O1000       O  0.08532344  0.92678838  0.82236875    -0.80000
O1001       O  0.09332102  0.90638864  0.73348108    -1.90500
Cd1002     Cd  0.11809630  0.92899690  0.69865653     1.59900
O1003       O  0.10316314  0.88292628  0.82051269    -0.80000
O1004       O  0.11089059  0.92251440  0.64389855    -0.78600
C1005       C  0.07438189  0.83257871  0.73831195     0.83900
C1006       C  0.01532164  0.91583279  0.74285021     0.83600
O1007       O  0.07652792  0.88958440  0.64782759    -0.77600
C1008       C  0.09661313  0.98483793  0.73139156     0.84400
O1009       O  0.06117167  0.85118057  0.72020186    -0.77700
C1010       C  0.09411954  0.90467287  0.83847414     0.84500
C1011       C  0.16870029  0.91708532  0.73894658     0.84800
O1012       O  0.15761473  0.90029591  0.76408132    -0.80100
O1013       O  0.38296346  0.92118673  0.59507951    -0.77600
C1014       C  0.41519726  0.98467087  0.01086125     0.83400
O1015       O  0.33645738  0.90068165  0.98792757    -0.78700
O1016       O  0.41450212  0.92504447  0.91726001    -0.80200
O1017       O  0.47243133  0.91132098  0.52979082    -0.80000
O1018       O  0.42119328  0.89283957  0.59505859    -0.78600
Zn1019     Zn  0.38517340  0.93339712  0.54119846     1.55700
O1020       O  0.46951806  0.91885686  0.96915975    -0.80000
Cd1021     Cd  0.43260706  0.89268597  0.53927370     1.59700
Cd1022     Cd  0.37970088  0.88157004  0.97975574     1.59600
O1023       O  0.43676135  0.85271164  0.52260185    -0.80000
O1024       O  0.40443942  0.90865866  0.00707302    -1.90500
Cd1025     Cd  0.42730831  0.93029507  0.96963812     1.59900
O1026       O  0.39942540  0.83949636  0.98908514    -0.80000
O1027       O  0.42501797  0.97200798  0.98190319    -0.78600
C1028       C  0.33009885  0.92520912  0.00256018     0.83900
C1029       C  0.40043732  0.90561232  0.61215654     0.83600
O1030       O  0.40243326  0.97179454  0.53799221    -0.77600
C1031       C  0.48419489  0.91565502  0.99765392     0.84400
O1032       O  0.34724090  0.93833369  0.52275142    -0.77700
C1033       C  0.42377436  0.83415268  0.00414698     0.84500
C1034       C  0.39981310  0.90574829  0.90259875     0.84800
O1035       O  0.38641970  0.88662723  0.92183452    -0.80100
O1036       O  0.38285907  0.92102201  0.84510059    -0.77600
C1037       C  0.41510416  0.98474093  0.76107945     0.83400
O1038       O  0.33648627  0.90076451  0.73784857    -0.78700
O1039       O  0.41428304  0.92527278  0.66727421    -0.80200
O1040       O  0.47244681  0.91152815  0.77961860    -0.80000
O1041       O  0.42133758  0.89299695  0.84498889    -0.78600
Zn1042     Zn  0.38512786  0.93340615  0.79127377     1.55700
O1043       O  0.46946808  0.91906014  0.71899814    -0.80000
Cd1044     Cd  0.43267427  0.89282892  0.78918323     1.59700
Cd1045     Cd  0.37972943  0.88163707  0.72977099     1.59600
O1046       O  0.43684024  0.85283911  0.77253279    -0.80000
O1047       O  0.40443306  0.90874950  0.75707166    -1.90500
Cd1048     Cd  0.42721506  0.93044704  0.71962528     1.59900
O1049       O  0.39943601  0.83957582  0.73916545    -0.80000
O1050       O  0.42488687  0.97211237  0.73207490    -0.78600
C1051       C  0.33010695  0.92527497  0.75251606     0.83900
C1052       C  0.40047123  0.90557044  0.86212993     0.83600
O1053       O  0.40237892  0.97183397  0.78821848    -0.77600
C1054       C  0.48417881  0.91586865  0.74746810     0.84400
O1055       O  0.34721802  0.93837462  0.77277583    -0.77700
C1056       C  0.42381503  0.83425376  0.75416160     0.84500
C1057       C  0.39975730  0.90584529  0.65262297     0.84800
O1058       O  0.38652974  0.88662544  0.67186748    -0.80100
O1059       O  0.46375367  0.80635762  0.51858058    -0.77600
C1060       C  0.49818240  0.75017043  0.60188387     0.83400
O1061       O  0.06164207  0.78559928  0.97116642    -0.78700
O1062       O  0.03701489  0.69249644  0.51693423    -0.80200
O1063       O  0.43475952  0.71314961  0.97850290    -0.80000
O1064       O  0.43438128  0.78694614  0.97866454    -0.78600
Zn1065     Zn  0.49936965  0.78329643  0.52865357     1.55700
O1066       O  0.46355780  0.69286547  0.51876201    -0.80000
Cd1067     Cd  0.46058607  0.75025026  0.96770901     1.59700
Cd1068     Cd  0.03521115  0.75034728  0.96302418     1.59600
O1069       O  0.47359346  0.75046579  0.91108341    -0.80000
O1070       O  0.49848085  0.75057724  0.99663721    -1.90500
Cd1071     Cd  0.49986225  0.71664659  0.52911828     1.59900
O1072       O  0.02223802  0.75068880  0.90824690    -0.80000
O1073       O  0.49862312  0.72628820  0.58536606    -0.78600
C1074       C  0.05772156  0.80610097  0.99384075     0.83900
C1075       C  0.44065297  0.80719305  0.00042510     0.83600
O1076       O  0.49836066  0.77354101  0.58390757    -0.77600
C1077       C  0.44068539  0.69257217  0.00010596     0.84400
O1078       O  0.03552213  0.80715247  0.51629025    -0.77700
C1079       C  0.99796164  0.75061328  0.89269360     0.84500
C1080       C  0.05845135  0.69401923  0.99332017     0.84800
O1081       O  0.06130499  0.71460637  0.97037589    -0.80100
O1082       O  0.46376840  0.80643264  0.76862279    -0.77600
C1083       C  0.49821063  0.75018066  0.85188524     0.83400
O1084       O  0.06159925  0.78570608  0.72110266    -0.78700
O1085       O  0.03704326  0.69258866  0.76689757    -0.80200
O1086       O  0.43474054  0.71322281  0.72851789    -0.80000
O1087       O  0.43439211  0.78704028  0.72869064    -0.78600
Zn1088     Zn  0.49937657  0.78335244  0.77867900     1.55700
O1089       O  0.46357653  0.69291018  0.76870890    -0.80000
Cd1090     Cd  0.46056811  0.75032573  0.71771398     1.59700
Cd1091     Cd  0.03519230  0.75043447  0.71299439     1.59600
O1092       O  0.47356446  0.75051191  0.66108180    -0.80000
O1093       O  0.49847201  0.75065076  0.74662629    -1.90500
Cd1094     Cd  0.49987119  0.71670637  0.77907843     1.59900
O1095       O  0.02220912  0.75072698  0.65823329    -0.80000
O1096       O  0.49863799  0.72631151  0.83533667    -0.78600
C1097       C  0.05770335  0.80618519  0.74381770     0.83900
C1098       C  0.44067244  0.80728122  0.75045891     0.83600
O1099       O  0.49838699  0.77356462  0.83393569    -0.77600
C1100       C  0.44068836  0.69262752  0.75008251     0.84400
O1101       O  0.03552919  0.80721340  0.76631157    -0.77700
C1102       C  0.49793124  0.75063817  0.64268774     0.84500
C1103       C  0.05848325  0.69412978  0.74329251     0.84800
O1104       O  0.06132193  0.71471915  0.72034960    -0.80100
O1105       O  0.80558046  0.46357561  0.47529361    -0.77600
C1106       C  0.74692232  0.49958527  0.39313258     0.83400
O1107       O  0.78162442  0.06156432  0.01827664    -0.78700
O1108       O  0.68930151  0.03740858  0.47618221    -0.80200
O1109       O  0.70955651  0.43631357  0.02025949    -0.80000
O1110       O  0.78148583  0.43774510  0.01862240    -0.78600
Zn1111     Zn  0.78141773  0.49974866  0.46427536     1.55700
O1112       O  0.68905280  0.46204208  0.47662746    -0.80000
Cd1113     Cd  0.74511206  0.46330312  0.02964437     1.59700
Cd1114     Cd  0.74520991  0.03595664  0.02944408     1.59600
O1115       O  0.74577745  0.47568184  0.08545935    -0.80000
O1116       O  0.74681620  0.49966168  0.49785868    -1.90500
Cd1117     Cd  0.71220458  0.49966559  0.46768424     1.59900
O1118       O  0.74584722  0.02348432  0.08529585    -0.80000
O1119       O  0.72282147  0.49957032  0.41149558    -0.78600
C1120       C  0.80347870  0.05793989  0.49593347     0.83900
C1121       C  0.80345194  0.44160254  0.49650861     0.83600
O1122       O  0.77095520  0.49964225  0.40919809    -0.77600
C1123       C  0.69040260  0.43938322  0.99625370     0.84400
O1124       O  0.80555944  0.03606058  0.47472758    -0.77700
C1125       C  0.74643822  0.99957797  0.10232853     0.84500
C1126       C  0.69067879  0.06004277  0.99567254     0.84800
O1127       O  0.70973464  0.06301325  0.01981289    -0.80100
O1128       O  0.80558976  0.46364245  0.22523690    -0.77600
C1129       C  0.74685161  0.49958934  0.14313663     0.83400
O1130       O  0.78164412  0.06159972  0.26823642    -0.78700
O1131       O  0.68930497  0.03751505  0.22622422    -0.80200
O1132       O  0.70957739  0.43636706  0.27024791    -0.80000
O1133       O  0.78150032  0.43781013  0.26856771    -0.78600
Zn1134     Zn  0.78140288  0.99980577  0.21422727     1.55700
O1135       O  0.68901706  0.46213067  0.22669525    -0.80000
Cd1136     Cd  0.74513262  0.46335840  0.27962161     1.59700
Cd1137     Cd  0.74524004  0.03600159  0.27945738     1.59600
O1138       O  0.74583036  0.47571355  0.33543728    -0.80000
O1139       O  0.74681944  0.99972139  0.24785038    -1.90500
Cd1140     Cd  0.71217810  0.99974637  0.21772567     1.59900
O1141       O  0.74593204  0.02351516  0.33530733    -0.80000
O1142       O  0.72275904  0.49961163  0.16152084    -0.78600
C1143       C  0.80347222  0.05800749  0.24584129     0.83900
C1144       C  0.80346354  0.44166858  0.24645124     0.83600
O1145       O  0.77089368  0.49964586  0.15917848    -0.77600
C1146       C  0.69039491  0.43945493  0.24628348     0.84400
O1147       O  0.80554358  0.03614304  0.22460644    -0.77700
C1148       C  0.74651874  0.99960049  0.35232281     0.84500
C1149       C  0.69070291  0.06014087  0.24572855     0.84800
O1150       O  0.70976418  0.06308153  0.26987027    -0.80100
O1151       O  0.90242654  0.02818264  0.03765967    -0.77600
C1152       C  0.90058103  0.09420692  0.11115376     0.83400
O1153       O  0.83650148  0.09892318  0.48673904    -0.78700
O1154       O  0.93655120  0.14686675  0.02153147    -0.80200
O1155       O  0.96965702  0.08129635  0.46793734    -0.80000
O1156       O  0.92516552  0.02790157  0.48164419    -0.78600
Zn1157     Zn  0.88517880  0.06653875  0.04046280     1.55700
O1158       O  0.97262823  0.08863698  0.02852425    -0.80000
Cd1159     Cd  0.92743766  0.06960112  0.46878308     1.59700
Cd1160     Cd  0.87973891  0.11829821  0.47855763     1.59600
O1161       O  0.91444423  0.07473549  0.41643334    -0.80000
O1162       O  0.90448401  0.09116642  0.50601602    -1.90500
Cd1163     Cd  0.93271068  0.10691863  0.03814164     1.59900
O1164       O  0.88663358  0.11332862  0.42068802    -0.80000
O1165       O  0.92152372  0.10668953  0.09394616    -0.78600
C1166       C  0.83012089  0.07444598  0.50174863     0.83900
C1167       C  0.91523736  0.01527846  0.51070174     0.83600
O1168       O  0.88289148  0.07886105  0.09420540    -0.77600
C1169       C  0.98437514  0.08453392  0.49636669     0.84400
O1170       O  0.84725083  0.06145015  0.02216222    -0.77700
C1171       C  0.89989088  0.09412255  0.40161936     0.84500
C1172       C  0.92366074  0.16563281  0.50322140     0.84800
O1173       O  0.89935365  0.16045902  0.48798585    -0.80100
O1174       O  0.90231498  0.02827281  0.28785429    -0.77600
C1175       C  0.90056598  0.09431290  0.36115893     0.83400
O1176       O  0.83652227  0.09896501  0.23658001    -0.78700
O1177       O  0.93654012  0.14692434  0.27153034    -0.80200
O1178       O  0.96962214  0.08132793  0.21786544    -0.80000
O1179       O  0.92511129  0.02794998  0.23187227    -0.78600
Zn1180     Zn  0.88510256  0.06666249  0.29052125     1.55700
O1181       O  0.97263380  0.08870564  0.27843766    -0.80000
Cd1182     Cd  0.92738629  0.06960464  0.21882914     1.59700
Cd1183     Cd  0.87976668  0.11834347  0.22849069     1.59600
O1184       O  0.91430373  0.07458178  0.16648343    -0.80000
O1185       O  0.90446363  0.09122310  0.25602763    -1.90500
Cd1186     Cd  0.93271787  0.10696238  0.28812099     1.59900
O1187       O  0.88674754  0.11335248  0.17063821    -0.80000
O1188       O  0.92158595  0.10666739  0.34394148    -0.78600
C1189       C  0.83010946  0.07451955  0.25165854     0.83900
C1190       C  0.91514960  0.01534885  0.26092926     0.83600
O1191       O  0.88276932  0.07908485  0.34422112    -0.77600
C1192       C  0.98436265  0.08460296  0.24627110     0.84400
O1193       O  0.84719802  0.06156317  0.27216781    -0.77700
C1194       C  0.89987760  0.09404037  0.15161700     0.84500
C1195       C  0.92366235  0.16568668  0.25319661     0.84800
O1196       O  0.89936905  0.16050714  0.23793003    -0.80100
O1197       O  0.57694981  0.11079388  0.39659388    -0.77600
C1198       C  0.51552730  0.08477367  0.49176227     0.83400
O1199       O  0.59976964  0.16263113  0.00157405    -0.78700
O1200       O  0.58526178  0.07369117  0.07153878    -0.80200
O1201       O  0.61329134  0.02864870  0.45811164    -0.80000
O1202       O  0.61120375  0.07777816  0.39296194    -0.78600
Zn1203     Zn  0.56631570  0.11070334  0.45161475     1.55700
O1204       O  0.57965004  0.02789036  0.00460596    -0.80000
Cd1205     Cd  0.61827903  0.07111323  0.44777614     1.59700
Cd1206     Cd  0.61636529  0.12060344  0.01299603     1.59600
O1207       O  0.65942891  0.08188454  0.45580944    -0.80000
O1208       O  0.59368510  0.09391900  0.48239343    -1.90500
Cd1209     Cd  0.57316867  0.06898470  0.01842364     1.59900
O1210       O  0.65814534  0.09941300  0.01296420    -0.80000
O1211       O  0.53019660  0.07728586  0.01895230    -0.78600
C1212       C  0.57532987  0.16785534  0.48702979     0.83900
C1213       C  0.59455936  0.09521318  0.37772202     0.83600
O1214       O  0.52716095  0.09352065  0.46111411    -0.77600
C1215       C  0.59653648  0.01540693  0.48115685     0.84400
O1216       O  0.56213137  0.14948283  0.46863894    -0.77700
C1217       C  0.66908933  0.08247270  0.48806138     0.84500
C1218       C  0.59459323  0.09561480  0.08740259     0.84800
O1219       O  0.60412783  0.11715238  0.06923067    -0.80100
O1220       O  0.57699904  0.11083710  0.14654768    -0.77600
C1221       C  0.51551856  0.08487363  0.24165675     0.83400
O1222       O  0.59977328  0.16272847  0.25165212    -0.78700
O1223       O  0.58519472  0.07375699  0.32149591    -0.80200
O1224       O  0.61343743  0.02876842  0.20817023    -0.80000
O1225       O  0.61128356  0.07784604  0.14298439    -0.78600
Zn1226     Zn  0.56635474  0.11082527  0.20156044     1.55700
O1227       O  0.57969781  0.02800305  0.25454531    -0.80000
Cd1228     Cd  0.61837180  0.07123990  0.19780448     1.59700
Cd1229     Cd  0.61637964  0.12069729  0.26305491     1.59600
O1230       O  0.65950757  0.08207099  0.20585492    -0.80000
O1231       O  0.59371612  0.09403652  0.23237827    -1.90500
Cd1232     Cd  0.57316524  0.06908670  0.26835410     1.59900
O1233       O  0.65816964  0.09951013  0.26304971    -0.80000
O1234       O  0.53018735  0.07734137  0.26882643    -0.78600
C1235       C  0.57537826  0.16797593  0.23700338     0.83900
C1236       C  0.59461724  0.09524151  0.12771061     0.83600
O1237       O  0.52715562  0.09369292  0.21104602    -0.77600
C1238       C  0.59664380  0.01552233  0.23116540     0.84400
O1239       O  0.56221462  0.14962272  0.21853852    -0.77700
C1240       C  0.66913777  0.08260234  0.23812496     0.84500
C1241       C  0.59454838  0.09564653  0.33741136     0.84800
O1242       O  0.60412167  0.11719301  0.31928756    -0.80100
O1243       O  0.52693680  0.40735497  0.46223144    -0.77600
C1244       C  0.59412611  0.40508457  0.37879880     0.83400
O1245       O  0.59895021  0.33747661  0.00269425    -0.77500
O1246       O  0.65905419  0.41754121  0.45666842    -0.80200
O1247       O  0.57942187  0.47233759  0.00480237    -0.80000
O1248       O  0.53004115  0.42277416  0.02030672    -0.78600
Zn1249     Zn  0.56581633  0.38980772  0.45288795     1.55700
O1250       O  0.61341081  0.47139174  0.45872055    -0.80000
Cd1251     Cd  0.57301273  0.43130549  0.01932537     1.59700
Cd1252     Cd  0.61563354  0.37937490  0.01434805     1.59600
O1253       O  0.58546730  0.42679417  0.07234443    -0.80000
O1254       O  0.59332364  0.40628922  0.48348760    -1.90500
Cd1255     Cd  0.61807466  0.42890554  0.44865822     1.59900
O1256       O  0.60315172  0.38287519  0.07054888    -0.80000
O1257       O  0.61086165  0.42244646  0.39389982    -0.78600
C1258       C  0.57440466  0.33249065  0.48832661     0.83900
C1259       C  0.51533539  0.41562522  0.49304459     0.83600
O1260       O  0.57644964  0.38956719  0.39781913    -0.77600
C1261       C  0.59650598  0.48472415  0.98137399     0.84400
O1262       O  0.56120344  0.35108259  0.47018874    -0.77700
C1263       C  0.59419708  0.40466792  0.08848205     0.84500
C1264       C  0.66869716  0.41702033  0.98893132     0.84800
O1265       O  0.65761173  0.40023820  0.01407669    -0.80100
O1266       O  0.52693191  0.40747341  0.21208477    -0.77600
C1267       C  0.59419303  0.40511070  0.12880487     0.83400
O1268       O  0.59894375  0.33755241  0.25264359    -0.78700
O1269       O  0.65906650  0.41760260  0.20667913    -0.80200
O1270       O  0.57954915  0.47245928  0.25485203    -0.80000
O1271       O  0.53001791  0.42302650  0.27010271    -0.78600
Zn1272     Zn  0.56582202  0.38989456  0.20286530     1.55700
O1273       O  0.61347326  0.47149530  0.20869448    -0.80000
Cd1274     Cd  0.57300956  0.43142725  0.26929714     1.59700
Cd1275     Cd  0.61563364  0.37944604  0.26431256     1.59600
O1276       O  0.58532349  0.42678840  0.32236878    -0.80000
O1277       O  0.59332103  0.40638858  0.23348102    -1.90500
Cd1278     Cd  0.61809631  0.42899696  0.19865655     1.59900
O1279       O  0.60316312  0.38292628  0.32051270    -0.80000
O1280       O  0.61089055  0.42251429  0.14389858    -0.78600
C1281       C  0.57438189  0.33257876  0.23831189     0.83900
C1282       C  0.51532167  0.41583267  0.24285019     0.83600
O1283       O  0.57652787  0.38958426  0.14782744    -0.77600
C1284       C  0.59661312  0.48483787  0.23139153     0.84400
O1285       O  0.56117171  0.35118056  0.22020168    -0.77700
C1286       C  0.59411956  0.40467287  0.33847417     0.84500
C1287       C  0.66870028  0.41708530  0.23894661     0.84800
O1288       O  0.65761477  0.40029586  0.26408133    -0.80100
O1289       O  0.88296353  0.42118676  0.09507955    -0.77600
C1290       C  0.91519732  0.48467082  0.51086125     0.83400
O1291       O  0.83645740  0.40068171  0.48792758    -0.78700
O1292       O  0.91450218  0.42504440  0.41726002    -0.80200
O1293       O  0.97243134  0.41132089  0.02979085    -0.80000
O1294       O  0.92119326  0.39283946  0.09505861    -0.78600
Zn1295     Zn  0.88517342  0.43339721  0.04119849     1.55700
O1296       O  0.96951804  0.41885693  0.46915974    -0.80000
Cd1297     Cd  0.93260707  0.39268586  0.03927372     1.59700
Cd1298     Cd  0.87970087  0.38156994  0.47975575     1.59600
O1299       O  0.93676134  0.35271156  0.02260188    -0.80000
O1300       O  0.90443939  0.40865859  0.50707301    -1.90500
Cd1301     Cd  0.92730831  0.43029515  0.46963814     1.59900
O1302       O  0.89942541  0.33949638  0.48908513    -0.80000
O1303       O  0.92501800  0.47200800  0.48190315    -0.78600
C1304       C  0.83009889  0.42520918  0.50256019     0.83900
C1305       C  0.90043732  0.40561227  0.11215656     0.83600
O1306       O  0.90243327  0.47179461  0.03799226    -0.77600
C1307       C  0.98419487  0.41565501  0.49765391     0.84400
O1308       O  0.84724092  0.43833377  0.02275144    -0.77700
C1309       C  0.92377436  0.33415273  0.50414698     0.84500
C1310       C  0.89981316  0.40574824  0.40259874     0.84800
O1311       O  0.88641968  0.38662722  0.42183453    -0.80100
O1312       O  0.88285906  0.42102194  0.34510060    -0.77600
C1313       C  0.91510413  0.48474096  0.26107947     0.83400
O1314       O  0.83648628  0.40076450  0.23784864    -0.78700
O1315       O  0.91428300  0.42527278  0.16727422    -0.80200
O1316       O  0.97244683  0.41152802  0.27961860    -0.80000
O1317       O  0.92133758  0.39299688  0.34498874    -0.78600
Zn1318     Zn  0.88512786  0.43340606  0.29127380     1.55700
O1319       O  0.96946811  0.41906022  0.21899819    -0.80000
Cd1320     Cd  0.93267429  0.39282881  0.28918301     1.59700
Cd1321     Cd  0.87972945  0.38163715  0.22977102     1.59600
O1322       O  0.93684027  0.35283902  0.27253282    -0.80000
O1323       O  0.90443308  0.40874956  0.25707163    -1.90500
Cd1324     Cd  0.92721507  0.43044713  0.21962530     1.59900
O1325       O  0.89943603  0.33957585  0.23916546    -0.80000
O1326       O  0.92488687  0.47211242  0.23207492    -0.78600
C1327       C  0.83010696  0.42527498  0.25251603     0.83900
C1328       C  0.90047127  0.40557039  0.36212988     0.83600
O1329       O  0.90237892  0.47183396  0.28821852    -0.77600
C1330       C  0.98417884  0.41586859  0.24746814     0.84400
O1331       O  0.84721802  0.43837466  0.27277580    -0.77700
C1332       C  0.92381503  0.33425371  0.25416164     0.84500
C1333       C  0.89975732  0.40584524  0.15262300     0.84800
O1334       O  0.88652979  0.38662538  0.17186750    -0.80100
O1335       O  0.96375365  0.30635758  0.01858061    -0.77600
C1336       C  0.99818243  0.25017045  0.10188388     0.83400
O1337       O  0.56164206  0.28559931  0.47116642    -0.78700
O1338       O  0.53701490  0.19249643  0.01693414    -0.80200
O1339       O  0.93475953  0.21314956  0.47850284    -0.80000
O1340       O  0.93438118  0.28694615  0.47866460    -0.78600
Zn1341     Zn  0.99936966  0.28329651  0.02865359     1.55700
O1342       O  0.96355783  0.19286537  0.01876204    -0.80000
Cd1343     Cd  0.96058607  0.25025017  0.46770903     1.59700
Cd1344     Cd  0.53521116  0.25034719  0.46302420     1.59600
O1345       O  0.97359344  0.25046586  0.41108343    -0.80000
O1346       O  0.99848083  0.25057715  0.49663720    -1.90500
Cd1347     Cd  0.99986226  0.21664650  0.02911829     1.59900
O1348       O  0.52223803  0.25068888  0.40824692    -0.80000
O1349       O  0.99862314  0.22628822  0.08536605    -0.78600
C1350       C  0.55772155  0.30610100  0.49384075     0.83900
C1351       C  0.94065294  0.30719308  0.50042508     0.83600
O1352       O  0.99836068  0.27354104  0.08390762    -0.77600
C1353       C  0.94068538  0.19257217  0.50010595     0.84400
O1354       O  0.53552210  0.30715251  0.01629022    -0.77700
C1355       C  0.49796165  0.25061330  0.39269362     0.84500
C1356       C  0.55845140  0.19401926  0.49332017     0.84800
O1357       O  0.56130504  0.21460640  0.47037590    -0.80100
O1358       O  0.96376840  0.30643254  0.26862282    -0.77600
C1359       C  0.99821058  0.25018063  0.35188526     0.83400
O1360       O  0.56159925  0.28570608  0.22110254    -0.78700
O1361       O  0.53704328  0.19258873  0.26689752    -0.80200
O1362       O  0.93474056  0.21322283  0.22851792    -0.80000
O1363       O  0.93439211  0.28704029  0.22869058    -0.78600
Zn1364     Zn  0.99937658  0.28335234  0.27867902     1.55700
O1365       O  0.96357655  0.19291009  0.26870889    -0.80000
Cd1366     Cd  0.96056813  0.25032581  0.21771378     1.59700
Cd1367     Cd  0.53519231  0.25043439  0.21299440     1.59600
O1368       O  0.97356451  0.25051195  0.16108175    -0.80000
O1369       O  0.99847198  0.25065074  0.24662629    -1.90500
Cd1370     Cd  0.99987120  0.21670627  0.27907845     1.59900
O1371       O  0.52220908  0.25072701  0.15823330    -0.80000
O1372       O  0.99863802  0.22631146  0.33533674    -0.78600
C1373       C  0.55770336  0.30618517  0.24381762     0.83900
C1374       C  0.94067243  0.30728117  0.25045894     0.83600
O1375       O  0.99838683  0.27356456  0.33393567    -0.77600
C1376       C  0.94068837  0.19262749  0.25008251     0.84400
O1377       O  0.53552922  0.30721330  0.26631157    -0.77700
C1378       C  0.99793130  0.25063817  0.14268773     0.84500
C1379       C  0.55848325  0.19412982  0.24329245     0.84800
O1380       O  0.56132196  0.21471920  0.22034956    -0.80100
O1381       O  0.80558051  0.46357561  0.97529366    -0.77600
C1382       C  0.74692234  0.49958522  0.89313256     0.83400
O1383       O  0.78162437  0.06156435  0.51827657    -0.78700
O1384       O  0.68930159  0.03740854  0.97618237    -0.80200
O1385       O  0.70955650  0.43631351  0.52025949    -0.80000
O1386       O  0.78148581  0.43774513  0.51862243    -0.78600
Zn1387     Zn  0.78141768  0.49974871  0.96427534     1.55700
O1388       O  0.68905273  0.46204200  0.97662740    -0.80000
Cd1389     Cd  0.74511199  0.46330300  0.52964435     1.59700
Cd1390     Cd  0.74520986  0.03595653  0.52944408     1.59600
O1391       O  0.74577739  0.47568187  0.58545935    -0.80000
O1392       O  0.74681615  0.49966176  0.99785866    -1.90500
Cd1393     Cd  0.71220452  0.49966547  0.96768423     1.59900
O1394       O  0.74584715  0.02348426  0.58529594    -0.80000
O1395       O  0.72282151  0.49957023  0.91149556    -0.78600
C1396       C  0.80347872  0.05793989  0.99593348     0.83900
C1397       C  0.80345196  0.44160249  0.99650859     0.83600
O1398       O  0.77095524  0.49964217  0.90919804    -0.77600
C1399       C  0.69040262  0.43938325  0.49625371     0.84400
O1400       O  0.80555940  0.03606062  0.97472751    -0.77700
C1401       C  0.74643819  0.99957789  0.60232858     0.84500
C1402       C  0.69067872  0.06004274  0.49567247     0.84800
O1403       O  0.70973461  0.06301315  0.51981280    -0.80100
O1404       O  0.80558969  0.46364237  0.72523692    -0.77600
C1405       C  0.74685160  0.49958936  0.64313668     0.83400
O1406       O  0.78164409  0.06159978  0.76823632    -0.78700
O1407       O  0.68930504  0.03751514  0.72622416    -0.80200
O1408       O  0.70957736  0.43636714  0.77024791    -0.80000
O1409       O  0.78150027  0.43781005  0.76856775    -0.78600
Zn1410     Zn  0.78140284  0.99980566  0.71422727     1.55700
O1411       O  0.68901700  0.46213066  0.72669518    -0.80000
Cd1412     Cd  0.74513273  0.46335847  0.77962158     1.59700
Cd1413     Cd  0.74523998  0.03600165  0.77945735     1.59600
O1414       O  0.74583032  0.47571350  0.83543728    -0.80000
O1415       O  0.74681947  0.99972133  0.74785038    -1.90500
Cd1416     Cd  0.71217805  0.99974643  0.71772565     1.59900
O1417       O  0.74593198  0.02351509  0.83530730    -0.80000
O1418       O  0.72275901  0.49961170  0.66152086    -0.78600
C1419       C  0.80347225  0.05800747  0.74584128     0.83900
C1420       C  0.80346351  0.44166853  0.74645131     0.83600
O1421       O  0.77089365  0.49964591  0.65917856    -0.77600
C1422       C  0.69039487  0.43945494  0.74628345     0.84400
O1423       O  0.80554363  0.03614297  0.72460651    -0.77700
C1424       C  0.74651872  0.99960040  0.85232278     0.84500
C1425       C  0.69070289  0.06014093  0.74572854     0.84800
O1426       O  0.70976412  0.06308161  0.76987029    -0.80100
O1427       O  0.90242646  0.02818264  0.53765962    -0.77600
C1428       C  0.90058107  0.09420696  0.61115373     0.83400
O1429       O  0.83650144  0.09892322  0.98673908    -0.78700
O1430       O  0.93655119  0.14686681  0.52153149    -0.80200
O1431       O  0.96965701  0.08129642  0.96793730    -0.80000
O1432       O  0.92516549  0.02790164  0.98164417    -0.78600
Zn1433     Zn  0.88517875  0.06653881  0.54046277     1.55700
O1434       O  0.97262825  0.08863707  0.52852427    -0.80000
Cd1435     Cd  0.92743776  0.06960121  0.96878307     1.59700
Cd1436     Cd  0.87973884  0.11829829  0.97855761     1.59600
O1437       O  0.91444433  0.07473557  0.91643337    -0.80000
O1438       O  0.90448393  0.09116647  0.00601600    -1.90500
Cd1439     Cd  0.93271079  0.10691871  0.53814162     1.59900
O1440       O  0.88663353  0.11332861  0.92068802    -0.80000
O1441       O  0.92152374  0.10668964  0.59394616    -0.78600
C1442       C  0.83012089  0.07444599  0.00174863     0.83900
C1443       C  0.91523738  0.01527850  0.01070171     0.83600
O1444       O  0.88289156  0.07886108  0.59420534    -0.77600
C1445       C  0.98437512  0.08453386  0.99636665     0.84400
O1446       O  0.84725078  0.06145016  0.52216226    -0.77700
C1447       C  0.89989088  0.09412257  0.90161938     0.84500
C1448       C  0.92366077  0.16563278  0.00322140     0.84800
O1449       O  0.89935365  0.16045906  0.98798589    -0.80100
O1450       O  0.90231494  0.02827282  0.78785422    -0.77600
C1451       C  0.90056601  0.09431289  0.86115895     0.83400
O1452       O  0.83652224  0.09896503  0.73658006    -0.78700
O1453       O  0.93654019  0.14692427  0.77153025    -0.80200
O1454       O  0.96962216  0.08132783  0.71786542    -0.80000
O1455       O  0.92511137  0.02794999  0.73187229    -0.78600
Zn1456     Zn  0.88510268  0.06666254  0.79052124     1.55700
O1457       O  0.97263376  0.08870570  0.77843762    -0.80000
Cd1458     Cd  0.92738623  0.06960470  0.71882913     1.59700
Cd1459     Cd  0.87976663  0.11834336  0.72849068     1.59600
O1460       O  0.91430371  0.07458177  0.66648341    -0.80000
O1461       O  0.90446358  0.09122305  0.75602770    -1.90500
Cd1462     Cd  0.93271781  0.10696227  0.78812097     1.59900
O1463       O  0.88674744  0.11335239  0.67063820    -0.80000
O1464       O  0.92158592  0.10666749  0.84394149    -0.78600
C1465       C  0.83010949  0.07451954  0.75165853     0.83900
C1466       C  0.91514958  0.01534886  0.76092921     0.83600
O1467       O  0.88276946  0.07908475  0.84422112    -0.77600
C1468       C  0.98436263  0.08460300  0.74627108     0.84400
O1469       O  0.84719812  0.06156316  0.77216772    -0.77700
C1470       C  0.89987757  0.09404035  0.65161697     0.84500
C1471       C  0.92366239  0.16568665  0.75319660     0.84800
O1472       O  0.89936904  0.16050712  0.73793007    -0.80100
O1473       O  0.57694975  0.11079379  0.89659389    -0.77600
C1474       C  0.51552730  0.08477371  0.99176228     0.83400
O1475       O  0.59976969  0.16263113  0.50157402    -0.78700
O1476       O  0.58526167  0.07369118  0.57153878    -0.80200
O1477       O  0.61329151  0.02864868  0.95811177    -0.80000
O1478       O  0.61120379  0.07777815  0.89296187    -0.78600
Zn1479     Zn  0.56631564  0.11070340  0.95161474     1.55700
O1480       O  0.57964998  0.02789030  0.50460597    -0.80000
Cd1481     Cd  0.61827899  0.07111329  0.94777613     1.59700
Cd1482     Cd  0.61636540  0.12060334  0.51299601     1.59600
O1483       O  0.65942897  0.08188459  0.95580948    -0.80000
O1484       O  0.59368504  0.09391909  0.98239340    -1.90500
Cd1485     Cd  0.57316861  0.06898458  0.51842362     1.59900
O1486       O  0.65814533  0.09941300  0.51296413    -0.80000
O1487       O  0.53019657  0.07728573  0.51895227    -0.78600
C1488       C  0.57532983  0.16785531  0.98702981     0.83900
C1489       C  0.59455936  0.09521316  0.87772200     0.83600
O1490       O  0.52716095  0.09352070  0.96111412    -0.77600
C1491       C  0.59653658  0.01540693  0.98115689     0.84400
O1492       O  0.56213131  0.14948276  0.96863908    -0.77700
C1493       C  0.66908940  0.08247274  0.98806141     0.84500
C1494       C  0.59459315  0.09561481  0.58740256     0.84800
O1495       O  0.60412782  0.11715235  0.56923062    -0.80100
O1496       O  0.57699901  0.11083716  0.64654766    -0.77600
C1497       C  0.51551859  0.08487365  0.74165670     0.83400
O1498       O  0.59977321  0.16272838  0.75165212    -0.78700
O1499       O  0.58519465  0.07375705  0.82149588    -0.80200
O1500       O  0.61343736  0.02876844  0.70817017    -0.80000
O1501       O  0.61128343  0.07784600  0.64298436    -0.78600
Zn1502     Zn  0.56635468  0.11082534  0.70156042     1.55700
O1503       O  0.57969785  0.02800299  0.75454538    -0.80000
Cd1504     Cd  0.61837173  0.07123996  0.69780445     1.59700
Cd1505     Cd  0.61637956  0.12069718  0.76305489     1.59600
O1506       O  0.65950749  0.08207106  0.70585497    -0.80000
O1507       O  0.59371602  0.09403644  0.73237825    -1.90500
Cd1508     Cd  0.57316518  0.06908658  0.76835408     1.59900
O1509       O  0.65816957  0.09951011  0.76304980    -0.80000
O1510       O  0.53018737  0.07734127  0.76882635    -0.78600
C1511       C  0.57537819  0.16797590  0.73700338     0.83900
C1512       C  0.59461717  0.09524153  0.62771059     0.83600
O1513       O  0.52715566  0.09369300  0.71104601    -0.77600
C1514       C  0.59664378  0.01552232  0.73116539     0.84400
O1515       O  0.56221454  0.14962276  0.71853846    -0.77700
C1516       C  0.66913768  0.08260235  0.73812502     0.84500
C1517       C  0.59454833  0.09564657  0.83741134     0.84800
O1518       O  0.60412159  0.11719307  0.81928755    -0.80100
O1519       O  0.52693678  0.40735501  0.96223146    -0.77600
C1520       C  0.59412609  0.40508456  0.87879878     0.83400
O1521       O  0.59895028  0.33747666  0.50269420    -0.77500
O1522       O  0.65905412  0.41754112  0.95666844    -0.80200
O1523       O  0.57942195  0.47233756  0.50480242    -0.80000
O1524       O  0.53004108  0.42277427  0.52030665    -0.78600
Zn1525     Zn  0.56581627  0.38980762  0.95288794     1.55700
O1526       O  0.61341085  0.47139172  0.95872062    -0.80000
Cd1527     Cd  0.57301266  0.43130555  0.51932535     1.59700
Cd1528     Cd  0.61563348  0.37937497  0.51434804     1.59600
O1529       O  0.58546725  0.42679419  0.57234442    -0.80000
O1530       O  0.59332371  0.40628921  0.98348757    -1.90500
Cd1531     Cd  0.61807461  0.42890560  0.94865819     1.59900
O1532       O  0.60315161  0.38287518  0.57054888    -0.80000
O1533       O  0.61086174  0.42244635  0.89389978    -0.78600
C1534       C  0.57440461  0.33249057  0.98832661     0.83900
C1535       C  0.51533540  0.41562519  0.99304466     0.83600
O1536       O  0.57644954  0.38956726  0.89781913    -0.77600
C1537       C  0.59650599  0.48472414  0.48137397     0.84400
O1538       O  0.56120339  0.35108249  0.97018870    -0.77700
C1539       C  0.59419704  0.40466793  0.58848205     0.84500
C1540       C  0.66869719  0.41702038  0.48893130     0.84800
O1541       O  0.65761167  0.40023828  0.51407668    -0.80100
O1542       O  0.52693193  0.40747350  0.71208476    -0.77600
C1543       C  0.59419306  0.40511075  0.62880489     0.83400
O1544       O  0.59894371  0.33755237  0.75264363    -0.78700
O1545       O  0.65906644  0.41760264  0.70667911    -0.80200
O1546       O  0.57954915  0.47245935  0.75485215    -0.80000
O1547       O  0.53001790  0.42302659  0.77010269    -0.78600
Zn1548     Zn  0.56582199  0.38989462  0.70286530     1.55700
O1549       O  0.61347316  0.47149527  0.70869448    -0.80000
Cd1550     Cd  0.57300967  0.43142732  0.76929712     1.59700
Cd1551     Cd  0.61563358  0.37944593  0.76431254     1.59600
O1552       O  0.58532340  0.42678835  0.82236877    -0.80000
O1553       O  0.59332106  0.40638858  0.73348102    -1.90500
Cd1554     Cd  0.61809625  0.42899687  0.69865653     1.59900
O1555       O  0.60316308  0.38292625  0.82051269    -0.80000
O1556       O  0.61089055  0.42251440  0.64389854    -0.78600
C1557       C  0.57438187  0.33257871  0.73831187     0.83900
C1558       C  0.51532166  0.41583276  0.74285017     0.83600
O1559       O  0.57652798  0.38958431  0.64782754    -0.77600
C1560       C  0.59661308  0.48483789  0.73139153     0.84400
O1561       O  0.56117174  0.35118052  0.72020159    -0.77700
C1562       C  0.59411950  0.40467283  0.83847415     0.84500
C1563       C  0.66870024  0.41708528  0.73894659     0.84800
O1564       O  0.65761468  0.40029587  0.76408132    -0.80100
O1565       O  0.88296347  0.42118671  0.59507950    -0.77600
C1566       C  0.91519728  0.48467083  0.01086125     0.83400
O1567       O  0.83645745  0.40068158  0.98792775    -0.78700
O1568       O  0.91450206  0.42504443  0.91726002    -0.80200
O1569       O  0.97243133  0.41132097  0.52979083    -0.80000
O1570       O  0.92119329  0.39283953  0.59505859    -0.78600
Zn1571     Zn  0.88517352  0.43339725  0.54119847     1.55700
O1572       O  0.96951804  0.41885683  0.96915976    -0.80000
Cd1573     Cd  0.93260718  0.39268593  0.53927370     1.59700
Cd1574     Cd  0.87970100  0.38157000  0.97975574     1.59600
O1575       O  0.93676133  0.35271162  0.52260188    -0.80000
O1576       O  0.90443940  0.40865864  0.00707304    -1.90500
Cd1577     Cd  0.92730826  0.43029503  0.96963812     1.59900
O1578       O  0.89942541  0.33949632  0.98908515    -0.80000
O1579       O  0.92501791  0.47200795  0.98190315    -0.78600
C1580       C  0.83009891  0.42520910  0.00256024     0.83900
C1581       C  0.90043733  0.40561231  0.61215654     0.83600
O1582       O  0.90243328  0.47179455  0.53799221    -0.77600
C1583       C  0.98419488  0.41565498  0.99765393     0.84400
O1584       O  0.84724093  0.43833382  0.52275142    -0.77700
C1585       C  0.92377437  0.33415267  0.00414700     0.84500
C1586       C  0.89981308  0.40574824  0.90259873     0.84800
O1587       O  0.88641966  0.38662719  0.92183451    -0.80100
O1588       O  0.88285915  0.42102198  0.84510057    -0.77600
C1589       C  0.91510415  0.48474095  0.76107944     0.83400
O1590       O  0.83648624  0.40076451  0.73784863    -0.78700
O1591       O  0.91428297  0.42527289  0.66727422    -0.80200
O1592       O  0.97244676  0.41152811  0.77961858    -0.80000
O1593       O  0.92133766  0.39299692  0.84498885    -0.78600
Zn1594     Zn  0.88512782  0.43340613  0.79127377     1.55700
O1595       O  0.96946809  0.41906009  0.71899813    -0.80000
Cd1596     Cd  0.93267422  0.39282888  0.78918301     1.59700
Cd1597     Cd  0.87972937  0.38163703  0.72977099     1.59600
O1598       O  0.93684019  0.35283908  0.77253277    -0.80000
O1599       O  0.90443301  0.40874950  0.75707160    -1.90500
Cd1600     Cd  0.92721518  0.43044701  0.71962528     1.59900
O1601       O  0.89943595  0.33957579  0.73916546    -0.80000
O1602       O  0.92488699  0.47211235  0.73207497    -0.78600
C1603       C  0.83010694  0.42527498  0.75251607     0.83900
C1604       C  0.90047128  0.40557039  0.86212991     0.83600
O1605       O  0.90237885  0.47183402  0.78821845    -0.77600
C1606       C  0.98417879  0.41586862  0.74746811     0.84400
O1607       O  0.84721804  0.43837468  0.77277575    -0.77700
C1608       C  0.92381497  0.33425374  0.75416162     0.84500
C1609       C  0.89975732  0.40584531  0.65262298     0.84800
O1610       O  0.88652987  0.38662540  0.67186749    -0.80100
O1611       O  0.96375368  0.30635763  0.51858053    -0.77600
C1612       C  0.99818241  0.25017051  0.60188386     0.83400
O1613       O  0.56164201  0.28559924  0.97116642    -0.78700
O1614       O  0.53701486  0.19249651  0.51693408    -0.80200
O1615       O  0.93475951  0.21314957  0.97850291    -0.80000
O1616       O  0.93438125  0.28694619  0.97866449    -0.78600
Zn1617     Zn  0.99936961  0.28329641  0.52865356     1.55700
O1618       O  0.96355778  0.19286543  0.51876207    -0.80000
Cd1619     Cd  0.96058602  0.25025023  0.96770901     1.59700
Cd1620     Cd  0.53521109  0.25034724  0.96302418     1.59600
O1621       O  0.97359343  0.25046575  0.91108342    -0.80000
O1622       O  0.99848092  0.25057721  0.99663719    -1.90500
Cd1623     Cd  0.99986220  0.21664656  0.52911827     1.59900
O1624       O  0.52223797  0.25068876  0.90824692    -0.80000
O1625       O  0.99862305  0.22628829  0.58536602    -0.78600
C1626       C  0.55772149  0.30610093  0.99384075     0.83900
C1627       C  0.94065295  0.30719304  0.00042510     0.83600
O1628       O  0.99836077  0.27354111  0.58390761    -0.77600
C1629       C  0.94068542  0.19257214  0.00010594     0.84400
O1630       O  0.53552218  0.30715256  0.51629025    -0.77700
C1631       C  0.49796161  0.25061325  0.89269359     0.84500
C1632       C  0.55845138  0.19401920  0.99332016     0.84800
O1633       O  0.56130494  0.21460633  0.97037585    -0.80100
O1634       O  0.96376834  0.30643262  0.76862281    -0.77600
C1635       C  0.99821058  0.25018062  0.85188524     0.83400
O1636       O  0.56159917  0.28570609  0.72110251    -0.78700
O1637       O  0.53704322  0.19258875  0.76689753    -0.80200
O1638       O  0.93474049  0.21322276  0.72851787    -0.80000
O1639       O  0.93439207  0.28704032  0.72869055    -0.78600
Zn1640     Zn  0.99937652  0.28335241  0.77867900     1.55700
O1641       O  0.96357654  0.19291018  0.76870889    -0.80000
Cd1642     Cd  0.96056806  0.25032570  0.71771375     1.59700
Cd1643     Cd  0.53519225  0.25043444  0.71299438     1.59600
O1644       O  0.97356444  0.25051187  0.66108173    -0.80000
O1645       O  0.99847198  0.25065072  0.74662623    -1.90500
Cd1646     Cd  0.99987131  0.21670634  0.77907843     1.59900
O1647       O  0.52220913  0.25072694  0.65823329    -0.80000
O1648       O  0.99863795  0.22631147  0.83533668    -0.78600
C1649       C  0.55770331  0.30618517  0.74381762     0.83900
C1650       C  0.94067238  0.30728122  0.75045891     0.83600
O1651       O  0.99838693  0.27356458  0.83393569    -0.77600
C1652       C  0.94068835  0.19262750  0.75008251     0.84400
O1653       O  0.53552917  0.30721334  0.76631154    -0.77700
C1654       C  0.99793124  0.25063816  0.64268772     0.84500
C1655       C  0.55848319  0.19412982  0.74329245     0.84800
O1656       O  0.56132188  0.21471915  0.72034950    -0.80100
O1657       O  0.80558047  0.96357558  0.47529363    -0.77600
C1658       C  0.74692231  0.99958529  0.39313258     0.83400
O1659       O  0.78162441  0.56156435  0.01827664    -0.78700
O1660       O  0.68930152  0.53740860  0.47618221    -0.80200
O1661       O  0.70955651  0.93631346  0.02025945    -0.80000
O1662       O  0.78148585  0.93774509  0.01862243    -0.78600
Zn1663     Zn  0.78141773  0.99974868  0.46427536     1.55700
O1664       O  0.68905280  0.96204208  0.47662746    -0.80000
Cd1665     Cd  0.74511204  0.96330296  0.02964437     1.59700
Cd1666     Cd  0.74520990  0.53595668  0.02944409     1.59600
O1667       O  0.74577744  0.97568185  0.08545933    -0.80000
O1668       O  0.74681619  0.99966171  0.49785867    -1.90500
Cd1669     Cd  0.71220457  0.99966562  0.46768424     1.59900
O1670       O  0.74584721  0.52348430  0.08529583    -0.80000
O1671       O  0.72282147  0.99957036  0.41149557    -0.78600
C1672       C  0.80347869  0.55793992  0.49593346     0.83900
C1673       C  0.80345193  0.94160251  0.49650864     0.83600
O1674       O  0.77095519  0.99964228  0.40919808    -0.77600
C1675       C  0.69040260  0.93938321  0.99625370     0.84400
O1676       O  0.80555943  0.53606061  0.47472759    -0.77700
C1677       C  0.74643822  0.49957795  0.10232853     0.84500
C1678       C  0.69067878  0.56004277  0.99567254     0.84800
O1679       O  0.70973463  0.56301328  0.01981289    -0.80100
O1680       O  0.80558974  0.96364248  0.22523695    -0.77600
C1681       C  0.74685160  0.99958936  0.14313663     0.83400
O1682       O  0.78164413  0.56159974  0.26823637    -0.78700
O1683       O  0.68930498  0.53751508  0.22622422    -0.80200
O1684       O  0.70957738  0.93636709  0.27024792    -0.80000
O1685       O  0.78150029  0.93781005  0.26856767    -0.78600
Zn1686     Zn  0.78140290  0.49980575  0.21422728     1.55700
O1687       O  0.68901704  0.96213069  0.22669525    -0.80000
Cd1688     Cd  0.74513262  0.96335843  0.27962161     1.59700
Cd1689     Cd  0.74524004  0.53600162  0.27945738     1.59600
O1690       O  0.74583035  0.97571357  0.33543727    -0.80000
O1691       O  0.74681945  0.49972138  0.24785039    -1.90500
Cd1692     Cd  0.71217810  0.49974634  0.21772567     1.59900
O1693       O  0.74593204  0.52351513  0.33530731    -0.80000
O1694       O  0.72275903  0.99961166  0.16152084    -0.78600
C1695       C  0.80347225  0.55800750  0.24584128     0.83900
C1696       C  0.80346354  0.94166857  0.24645124     0.83600
O1697       O  0.77089367  0.99964590  0.15917848    -0.77600
C1698       C  0.69039491  0.93945494  0.24628347     0.84400
O1699       O  0.80554368  0.53614305  0.22460645    -0.77700
C1700       C  0.74651875  0.49960045  0.35232280     0.84500
C1701       C  0.69070291  0.56014090  0.24572854     0.84800
O1702       O  0.70976417  0.56308157  0.26987027    -0.80100
O1703       O  0.90242653  0.52818263  0.03765967    -0.77600
C1704       C  0.90058102  0.59420696  0.11115376     0.83400
O1705       O  0.83650148  0.59892322  0.48673904    -0.78700
O1706       O  0.93655121  0.64686678  0.02153150    -0.80200
O1707       O  0.96965701  0.58129638  0.46793734    -0.80000
O1708       O  0.92516535  0.52790159  0.48164416    -0.78600
Zn1709     Zn  0.88517880  0.56653878  0.04046280     1.55700
O1710       O  0.97262823  0.58863703  0.02852425    -0.80000
Cd1711     Cd  0.92743764  0.56960116  0.46878308     1.59700
Cd1712     Cd  0.87973890  0.61829824  0.47855763     1.59600
O1713       O  0.91444422  0.57473553  0.41643334    -0.80000
O1714       O  0.90448398  0.59116641  0.50601603    -1.90500
Cd1715     Cd  0.93271068  0.60691867  0.03814164     1.59900
O1716       O  0.88663357  0.61332866  0.42068802    -0.80000
O1717       O  0.92152371  0.60668956  0.09394616    -0.78600
C1718       C  0.83012088  0.57444602  0.50174863     0.83900
C1719       C  0.91523732  0.51527843  0.51070173     0.83600
O1720       O  0.88289147  0.57886109  0.09420540    -0.77600
C1721       C  0.98437514  0.58453391  0.49636667     0.84400
O1722       O  0.84725082  0.56145016  0.02216225    -0.77700
C1723       C  0.89989087  0.59412259  0.40161936     0.84500
C1724       C  0.92366073  0.66563283  0.50322142     0.84800
O1725       O  0.89935365  0.66045906  0.48798585    -0.80100
O1726       O  0.90231494  0.52827283  0.28785431    -0.77600
C1727       C  0.90056597  0.59431294  0.36115893     0.83400
O1728       O  0.83652228  0.59896500  0.23658006    -0.78700
O1729       O  0.93654012  0.64692431  0.27153030    -0.80200
O1730       O  0.96962215  0.58132796  0.21786537    -0.80000
O1731       O  0.92511125  0.52795000  0.23187227    -0.78600
Zn1732     Zn  0.88510255  0.56666251  0.29052125     1.55700
O1733       O  0.97263379  0.58870570  0.27843758    -0.80000
Cd1734     Cd  0.92738628  0.56960467  0.21882914     1.59700
Cd1735     Cd  0.87976669  0.61834333  0.22849069     1.59600
O1736       O  0.91430372  0.57458181  0.16648342    -0.80000
O1737       O  0.90446363  0.59122302  0.25602764    -1.90500
Cd1738     Cd  0.93271786  0.60696240  0.28812098     1.59900
O1739       O  0.88674753  0.61335249  0.17063821    -0.80000
O1740       O  0.92158595  0.60666743  0.34394148    -0.78600
C1741       C  0.83010945  0.57451954  0.25165857     0.83900
C1742       C  0.91514952  0.51534887  0.26092925     0.83600
O1743       O  0.88276931  0.57908490  0.34422112    -0.77600
C1744       C  0.98436265  0.58460299  0.24627104     0.84400
O1745       O  0.84719802  0.56156311  0.27216778    -0.77700
C1746       C  0.89987759  0.59404041  0.15161699     0.84500
C1747       C  0.92366234  0.66568667  0.25319660     0.84800
O1748       O  0.89936903  0.66050712  0.23793005    -0.80100
O1749       O  0.57694985  0.61079390  0.39659389    -0.77600
C1750       C  0.51552730  0.58477371  0.49176227     0.83400
O1751       O  0.59976973  0.66263118  0.00157400    -0.78700
O1752       O  0.58526174  0.57369114  0.07153880    -0.80200
O1753       O  0.61329133  0.52864871  0.45811165    -0.80000
O1754       O  0.61120369  0.57777808  0.39296192    -0.78600
Zn1755     Zn  0.56631569  0.61070336  0.45161475     1.55700
O1756       O  0.57965003  0.52789027  0.00460598    -0.80000
Cd1757     Cd  0.61827902  0.57111326  0.44777614     1.59700
Cd1758     Cd  0.61636529  0.62060347  0.01299603     1.59600
O1759       O  0.65942890  0.58188458  0.45580943    -0.80000
O1760       O  0.59368509  0.59391903  0.48239343    -1.90500
Cd1761     Cd  0.57316867  0.56898455  0.01842364     1.59900
O1762       O  0.65814533  0.59941301  0.01296420    -0.80000
O1763       O  0.53019659  0.57728571  0.01895225    -0.78600
C1764       C  0.57532985  0.66785527  0.48702981     0.83900
C1765       C  0.59455936  0.59521317  0.37772202     0.83600
O1766       O  0.52716094  0.59352068  0.46111411    -0.77600
C1767       C  0.59653647  0.51540693  0.48115686     0.84400
O1768       O  0.56213136  0.64948276  0.46863896    -0.77700
C1769       C  0.66908933  0.58247273  0.48806137     0.84500
C1770       C  0.59459321  0.59561477  0.08740259     0.84800
O1771       O  0.60412786  0.61715233  0.06923065    -0.80100
O1772       O  0.57699908  0.61083712  0.14654768    -0.77600
C1773       C  0.51551855  0.58487362  0.24165675     0.83400
O1774       O  0.59977328  0.66272849  0.25165212    -0.78700
O1775       O  0.58519471  0.57375702  0.32149590    -0.80200
O1776       O  0.61343742  0.52876844  0.20817024    -0.80000
O1777       O  0.61128350  0.57784596  0.14298438    -0.78600
Zn1778     Zn  0.56635473  0.61082530  0.20156044     1.55700
O1779       O  0.57969781  0.52800307  0.25454531    -0.80000
Cd1780     Cd  0.61837179  0.57123993  0.19780448     1.59700
Cd1781     Cd  0.61637964  0.62069733  0.26305491     1.59600
O1782       O  0.65950756  0.58207103  0.20585492    -0.80000
O1783       O  0.59371611  0.59403656  0.23237826    -1.90500
Cd1784     Cd  0.57316523  0.56908673  0.26835410     1.59900
O1785       O  0.65816963  0.59951016  0.26304971    -0.80000
O1786       O  0.53018733  0.57734125  0.26882639    -0.78600
C1787       C  0.57537825  0.66797591  0.23700340     0.83900
C1788       C  0.59461723  0.59524148  0.12771061     0.83600
O1789       O  0.52715561  0.59369297  0.21104605    -0.77600
C1790       C  0.59664380  0.51552234  0.23116540     0.84400
O1791       O  0.56221462  0.64962273  0.21853851    -0.77700
C1792       C  0.66913777  0.58260238  0.23812496     0.84500
C1793       C  0.59454838  0.59564655  0.33741136     0.84800
O1794       O  0.60412166  0.61719305  0.31928757    -0.80100
O1795       O  0.52693681  0.90735498  0.46223144    -0.77600
C1796       C  0.59412610  0.90508453  0.37879881     0.83400
O1797       O  0.59895024  0.83747663  0.00269430    -0.77500
O1798       O  0.65905418  0.91754125  0.45666842    -0.80200
O1799       O  0.57942198  0.97233759  0.00480245    -0.80000
O1800       O  0.53004113  0.92277420  0.02030670    -0.78600
Zn1801     Zn  0.56581632  0.88980759  0.45288795     1.55700
O1802       O  0.61341079  0.97139171  0.45872056    -0.80000
Cd1803     Cd  0.57301273  0.93130552  0.01932537     1.59700
Cd1804     Cd  0.61563354  0.87937494  0.01434805     1.59600
O1805       O  0.58546729  0.92679421  0.07234443    -0.80000
O1806       O  0.59332364  0.90628920  0.48348756    -1.90500
Cd1807     Cd  0.61807465  0.92890556  0.44865822     1.59900
O1808       O  0.60315171  0.88287523  0.07054888    -0.80000
O1809       O  0.61086169  0.92244636  0.39389982    -0.78600
C1810       C  0.57440464  0.83249063  0.48832665     0.83900
C1811       C  0.51533539  0.91562526  0.49304458     0.83600
O1812       O  0.57644959  0.88956718  0.39781913    -0.77600
C1813       C  0.59650602  0.98472415  0.98137401     0.84400
O1814       O  0.56120341  0.85108255  0.47018875    -0.77700
C1815       C  0.59419707  0.90466796  0.08848205     0.84500
C1816       C  0.66869714  0.91702036  0.98893131     0.84800
O1817       O  0.65761171  0.90023823  0.01407669    -0.80100
O1818       O  0.52693191  0.90747344  0.21208477    -0.77600
C1819       C  0.59419302  0.90511074  0.12880487     0.83400
O1820       O  0.59894375  0.83755244  0.25264361    -0.78700
O1821       O  0.65906649  0.91760261  0.20667913    -0.80200
O1822       O  0.57954914  0.97245930  0.25485203    -0.80000
O1823       O  0.53001790  0.92302654  0.27010271    -0.78600
Zn1824     Zn  0.56582201  0.88989458  0.20286530     1.55700
O1825       O  0.61347326  0.97149532  0.20869448    -0.80000
Cd1826     Cd  0.57300955  0.93142728  0.26929714     1.59700
Cd1827     Cd  0.61563364  0.87944607  0.26431256     1.59600
O1828       O  0.58532348  0.92678839  0.32236879    -0.80000
O1829       O  0.59332102  0.90638862  0.23348103    -1.90500
Cd1830     Cd  0.61809630  0.92899700  0.19865655     1.59900
O1831       O  0.60316311  0.88292627  0.32051269    -0.80000
O1832       O  0.61089055  0.92251432  0.14389858    -0.78600
C1833       C  0.57438189  0.83257872  0.23831190     0.83900
C1834       C  0.51532167  0.91583272  0.24285019     0.83600
O1835       O  0.57652787  0.88958430  0.14782744    -0.77600
C1836       C  0.59661312  0.98483788  0.23139153     0.84400
O1837       O  0.56117169  0.85118050  0.22020164    -0.77700
C1838       C  0.59411954  0.90467285  0.33847417     0.84500
C1839       C  0.66870030  0.91708528  0.23894659     0.84800
O1840       O  0.65761476  0.90029587  0.26408133    -0.80100
O1841       O  0.88296347  0.92118667  0.09507952    -0.77600
C1842       C  0.91519731  0.98467082  0.51086126     0.83400
O1843       O  0.83645737  0.90068162  0.48792763    -0.78700
O1844       O  0.91450213  0.92504439  0.41726004    -0.80200
O1845       O  0.97243134  0.91132093  0.02979085    -0.80000
O1846       O  0.92119329  0.89283949  0.09505862    -0.78600
Zn1847     Zn  0.88517341  0.93339724  0.04119849     1.55700
O1848       O  0.96951804  0.91885695  0.46915974    -0.80000
Cd1849     Cd  0.93260707  0.89268590  0.03927371     1.59700
Cd1850     Cd  0.87970088  0.88156996  0.47975576     1.59600
O1851       O  0.93676133  0.85271158  0.02260187    -0.80000
O1852       O  0.90443947  0.90865856  0.50707300    -1.90500
Cd1853     Cd  0.92730831  0.93029501  0.46963814     1.59900
O1854       O  0.89942541  0.83949634  0.48908519    -0.80000
O1855       O  0.92501799  0.97200798  0.48190317    -0.78600
C1856       C  0.83009887  0.92520908  0.50256024     0.83900
C1857       C  0.90043733  0.90561226  0.11215656     0.83600
O1858       O  0.90243326  0.97179465  0.03799227    -0.77600
C1859       C  0.98419486  0.91565506  0.49765391     0.84400
O1860       O  0.84724090  0.93833377  0.02275144    -0.77700
C1861       C  0.92377440  0.83415273  0.50414698     0.84500
C1862       C  0.89981314  0.90574822  0.40259874     0.84800
O1863       O  0.88641971  0.88662716  0.42183450    -0.80100
O1864       O  0.88285905  0.92102197  0.34510061    -0.77600
C1865       C  0.91510417  0.98474095  0.26107948     0.83400
O1866       O  0.83648629  0.90076451  0.23784864    -0.78700
O1867       O  0.91428300  0.92527280  0.16727422    -0.80200
O1868       O  0.97244683  0.91152805  0.27961860    -0.80000
O1869       O  0.92133757  0.89299692  0.34498874    -0.78600
Zn1870     Zn  0.88512786  0.93340610  0.29127380     1.55700
O1871       O  0.96946811  0.91906023  0.21899819    -0.80000
Cd1872     Cd  0.93267428  0.89282885  0.28918301     1.59700
Cd1873     Cd  0.87972943  0.88163700  0.22977102     1.59600
O1874       O  0.93684025  0.85283905  0.27253279    -0.80000
O1875       O  0.90443304  0.90874952  0.25707163    -1.90500
Cd1876     Cd  0.92721506  0.93044699  0.21962530     1.59900
O1877       O  0.89943602  0.83957575  0.23916548    -0.80000
O1878       O  0.92488687  0.97211238  0.23207491    -0.78600
C1879       C  0.83010697  0.92527500  0.25251602     0.83900
C1880       C  0.90047126  0.90557041  0.36212988     0.83600
O1881       O  0.90237892  0.97183399  0.28821851    -0.77600
C1882       C  0.98417884  0.91586863  0.24746814     0.84400
O1883       O  0.84721801  0.93837469  0.27277580    -0.77700
C1884       C  0.92381503  0.83425370  0.25416165     0.84500
C1885       C  0.89975731  0.90584526  0.15262300     0.84800
O1886       O  0.88652979  0.88662540  0.17186751    -0.80100
O1887       O  0.96375365  0.80635761  0.01858059    -0.77600
C1888       C  0.99818243  0.75017048  0.10188388     0.83400
O1889       O  0.56164208  0.78559930  0.47116637    -0.78700
O1890       O  0.53701491  0.69249648  0.01693408    -0.80200
O1891       O  0.93475952  0.71314960  0.47850285    -0.80000
O1892       O  0.93438119  0.78694618  0.47866459    -0.78600
Zn1893     Zn  0.99936965  0.78329654  0.02865359     1.55700
O1894       O  0.96355781  0.69286541  0.01876204    -0.80000
Cd1895     Cd  0.96058606  0.75025020  0.46770903     1.59700
Cd1896     Cd  0.53521116  0.75034721  0.46302420     1.59600
O1897       O  0.97359343  0.75046569  0.41108343    -0.80000
O1898       O  0.99848083  0.75057719  0.49663720    -1.90500
Cd1899     Cd  0.99986225  0.71664654  0.02911829     1.59900
O1900       O  0.52223803  0.75068888  0.40824692    -0.80000
O1901       O  0.99862314  0.72628825  0.08536604    -0.78600
C1902       C  0.55772156  0.80610095  0.49384076     0.83900
C1903       C  0.94065296  0.80719310  0.50042509     0.83600
O1904       O  0.99836067  0.77354108  0.08390763    -0.77600
C1905       C  0.94068538  0.69257221  0.50010595     0.84400
O1906       O  0.53552209  0.80715256  0.01629022    -0.77700
C1907       C  0.49796164  0.75061325  0.39269362     0.84500
C1908       C  0.55845138  0.69401917  0.49332024     0.84800
O1909       O  0.56130497  0.71460630  0.47037593    -0.80100
O1910       O  0.96376840  0.80643258  0.26862282    -0.77600
C1911       C  0.99821058  0.75018059  0.35188526     0.83400
O1912       O  0.56159925  0.78570607  0.22110253    -0.78700
O1913       O  0.53704327  0.69258872  0.26689755    -0.80200
O1914       O  0.93474055  0.71322285  0.22851794    -0.80000
O1915       O  0.93439212  0.78704032  0.22869058    -0.78600
Zn1916     Zn  0.99937658  0.78335238  0.27867903     1.55700
O1917       O  0.96357654  0.69291011  0.26870890    -0.80000
Cd1918     Cd  0.96056813  0.75032585  0.21771378     1.59700
Cd1919     Cd  0.53519230  0.75043440  0.21299441     1.59600
O1920       O  0.97356450  0.75051202  0.16108175    -0.80000
O1921       O  0.99847197  0.75065078  0.24662629    -1.90500
Cd1922     Cd  0.99987120  0.71670630  0.27907844     1.59900
O1923       O  0.52220909  0.75072688  0.15823333    -0.80000
O1924       O  0.99863802  0.72631143  0.33533670    -0.78600
C1925       C  0.55770338  0.80618515  0.24381765     0.83900
C1926       C  0.94067244  0.80728119  0.25045895     0.83600
O1927       O  0.99838682  0.77356453  0.33393571    -0.77600
C1928       C  0.94068837  0.69262751  0.25008251     0.84400
O1929       O  0.53552922  0.80721330  0.26631157    -0.77700
C1930       C  0.99793129  0.75063816  0.14268773     0.84500
C1931       C  0.55848323  0.69412979  0.24329246     0.84800
O1932       O  0.56132193  0.71471913  0.22034952    -0.80100
O1933       O  0.80558049  0.96357556  0.97529359    -0.77600
C1934       C  0.74692234  0.99958519  0.89313255     0.83400
O1935       O  0.78162436  0.56156439  0.51827657    -0.78700
O1936       O  0.68930160  0.53740854  0.97618237    -0.80200
O1937       O  0.70955650  0.93631351  0.52025949    -0.80000
O1938       O  0.78148579  0.93774514  0.51862244    -0.78600
Zn1939     Zn  0.78141768  0.99974873  0.96427534     1.55700
O1940       O  0.68905274  0.96204202  0.97662744    -0.80000
Cd1941     Cd  0.74511198  0.96330303  0.52964435     1.59700
Cd1942     Cd  0.74520985  0.53595657  0.52944408     1.59600
O1943       O  0.74577738  0.97568180  0.58545935    -0.80000
O1944       O  0.74681614  0.99966165  0.99785868    -1.90500
Cd1945     Cd  0.71220451  0.99966549  0.96768423     1.59900
O1946       O  0.74584714  0.52348433  0.58529593    -0.80000
O1947       O  0.72282150  0.99957024  0.91149556    -0.78600
C1948       C  0.80347871  0.55793990  0.99593349     0.83900
C1949       C  0.80345195  0.94160247  0.99650858     0.83600
O1950       O  0.77095524  0.99964218  0.90919804    -0.77600
C1951       C  0.69040263  0.93938324  0.49625370     0.84400
O1952       O  0.80555938  0.53606063  0.97472751    -0.77700
C1953       C  0.74643820  0.49957797  0.60232858     0.84500
C1954       C  0.69067872  0.56004277  0.49567247     0.84800
O1955       O  0.70973460  0.56301318  0.51981280    -0.80100
O1956       O  0.80558968  0.96364240  0.72523692    -0.77600
C1957       C  0.74685159  0.99958927  0.64313668     0.83400
O1958       O  0.78164407  0.56159977  0.76823632    -0.78700
O1959       O  0.68930502  0.53751507  0.72622421    -0.80200
O1960       O  0.70957735  0.93636703  0.77024788    -0.80000
O1961       O  0.78150028  0.93781005  0.76856775    -0.78600
Zn1962     Zn  0.78140284  0.49980564  0.71422727     1.55700
O1963       O  0.68901701  0.96213068  0.72669524    -0.80000
Cd1964     Cd  0.74513272  0.96335831  0.77962159     1.59700
Cd1965     Cd  0.74523997  0.53600153  0.77945736     1.59600
O1966       O  0.74583031  0.97571349  0.83543725    -0.80000
O1967       O  0.74681948  0.49972139  0.74785034    -1.90500
Cd1968     Cd  0.71217805  0.49974640  0.71772565     1.59900
O1969       O  0.74593198  0.52351508  0.83530729    -0.80000
O1970       O  0.72275900  0.99961153  0.66152085    -0.78600
C1971       C  0.80347224  0.55800747  0.74584128     0.83900
C1972       C  0.80346352  0.94166856  0.74645132     0.83600
O1973       O  0.77089365  0.99964593  0.65917856    -0.77600
C1974       C  0.69039486  0.93945493  0.74628345     0.84400
O1975       O  0.80554361  0.53614298  0.72460650    -0.77700
C1976       C  0.74651872  0.49960041  0.85232279     0.84500
C1977       C  0.69070289  0.56014089  0.74572853     0.84800
O1978       O  0.70976414  0.56308158  0.76987026    -0.80100
O1979       O  0.90242645  0.52818254  0.53765968    -0.77600
C1980       C  0.90058104  0.59420694  0.61115373     0.83400
O1981       O  0.83650146  0.59892317  0.98673902    -0.78700
O1982       O  0.93655118  0.64686680  0.52153150    -0.80200
O1983       O  0.96965702  0.58129629  0.96793732    -0.80000
O1984       O  0.92516548  0.52790163  0.98164417    -0.78600
Zn1985     Zn  0.88517874  0.56653866  0.54046277     1.55700
O1986       O  0.97262827  0.58863708  0.52852426    -0.80000
Cd1987     Cd  0.92743776  0.56960122  0.96878306     1.59700
Cd1988     Cd  0.87973884  0.61829829  0.97855761     1.59600
O1989       O  0.91444427  0.57473551  0.91643335    -0.80000
O1990       O  0.90448400  0.59116643  0.00601599    -1.90500
Cd1991     Cd  0.93271078  0.60691857  0.53814162     1.59900
O1992       O  0.88663356  0.61332862  0.92068803    -0.80000
O1993       O  0.92152370  0.60668965  0.59394614    -0.78600
C1994       C  0.83012089  0.57444597  0.00174864     0.83900
C1995       C  0.91523737  0.51527848  0.01070171     0.83600
O1996       O  0.88289161  0.57886096  0.59420536    -0.77600
C1997       C  0.98437512  0.58453385  0.99636666     0.84400
O1998       O  0.84725077  0.56145017  0.52216226    -0.77700
C1999       C  0.89989088  0.59412255  0.90161938     0.84500
C2000       C  0.92366076  0.66563278  0.00322140     0.84800
O2001       O  0.89935366  0.66045901  0.98798588    -0.80100
O2002       O  0.90231495  0.52827281  0.78785421    -0.77600
C2003       C  0.90056600  0.59431291  0.86115894     0.83400
O2004       O  0.83652223  0.59896503  0.73658007    -0.78700
O2005       O  0.93654019  0.64692431  0.77153024    -0.80200
O2006       O  0.96962220  0.58132788  0.71786542    -0.80000
O2007       O  0.92511137  0.52795003  0.73187227    -0.78600
Zn2008     Zn  0.88510267  0.56666241  0.79052124     1.55700
O2009       O  0.97263378  0.58870557  0.77843765    -0.80000
Cd2010     Cd  0.92738623  0.56960474  0.71882913     1.59700
Cd2011     Cd  0.87976662  0.61834340  0.72849068     1.59600
O2012       O  0.91430370  0.57458181  0.66648341    -0.80000
O2013       O  0.90446356  0.59122306  0.75602773    -1.90500
Cd2014     Cd  0.93271781  0.60696230  0.78812097     1.59900
O2015       O  0.88674743  0.61335243  0.67063819    -0.80000
O2016       O  0.92158592  0.60666753  0.84394149    -0.78600
C2017       C  0.83010948  0.57451953  0.75165853     0.83900
C2018       C  0.91514959  0.51534887  0.76092919     0.83600
O2019       O  0.88276946  0.57908476  0.84422112    -0.77600
C2020       C  0.98436267  0.58460295  0.74627109     0.84400
O2021       O  0.84719811  0.56156313  0.77216771    -0.77700
C2022       C  0.89987756  0.59404038  0.65161697     0.84500
C2023       C  0.92366238  0.66568669  0.75319661     0.84800
O2024       O  0.89936904  0.66050716  0.73793007    -0.80100
O2025       O  0.57694991  0.61079384  0.89659391    -0.77600
C2026       C  0.51552729  0.58477370  0.99176228     0.83400
O2027       O  0.59976967  0.66263105  0.50157402    -0.78700
O2028       O  0.58526166  0.57369120  0.57153874    -0.80200
O2029       O  0.61329149  0.52864870  0.95811178    -0.80000
O2030       O  0.61120385  0.57777813  0.89296186    -0.78600
Zn2031     Zn  0.56631564  0.61070327  0.95161474     1.55700
O2032       O  0.57964997  0.52789030  0.50460598    -0.80000
Cd2033     Cd  0.61827898  0.57111333  0.94777614     1.59700
Cd2034     Cd  0.61636540  0.62060337  0.51299601     1.59600
O2035       O  0.65942896  0.58188460  0.95580948    -0.80000
O2036       O  0.59368503  0.59391907  0.98239343    -1.90500
Cd2037     Cd  0.57316860  0.56898462  0.51842362     1.59900
O2038       O  0.65814533  0.59941304  0.51296413    -0.80000
O2039       O  0.53019657  0.57728577  0.51895227    -0.78600
C2040       C  0.57532988  0.66785533  0.98702982     0.83900
C2041       C  0.59455946  0.59521318  0.87772200     0.83600
O2042       O  0.52716094  0.59352072  0.96111414    -0.77600
C2043       C  0.59653656  0.51540692  0.98115690     0.84400
O2044       O  0.56213135  0.64948275  0.96863912    -0.77700
C2045       C  0.66908937  0.58247271  0.98806142     0.84500
C2046       C  0.59459315  0.59561480  0.58740257     0.84800
O2047       O  0.60412781  0.61715237  0.56923065    -0.80100
O2048       O  0.57699896  0.61083704  0.64654768    -0.77600
C2049       C  0.51551862  0.58487361  0.74165673     0.83400
O2050       O  0.59977321  0.66272838  0.75165212    -0.78700
O2051       O  0.58519464  0.57375704  0.82149592    -0.80200
O2052       O  0.61343738  0.52876846  0.70817018    -0.80000
O2053       O  0.61128350  0.57784599  0.64298435    -0.78600
Zn2054     Zn  0.56635468  0.61082537  0.70156042     1.55700
O2055       O  0.57969787  0.52800301  0.75454538    -0.80000
Cd2056     Cd  0.61837190  0.57124000  0.69780445     1.59700
Cd2057     Cd  0.61637956  0.62069720  0.76305489     1.59600
O2058       O  0.65950757  0.58207111  0.70585494    -0.80000
O2059       O  0.59371607  0.59403648  0.73237821    -1.90500
Cd2060     Cd  0.57316535  0.56908661  0.76835408     1.59900
O2061       O  0.65816953  0.59951001  0.76304984    -0.80000
O2062       O  0.53018744  0.57734126  0.76882636    -0.78600
C2063       C  0.57537819  0.66797590  0.73700340     0.83900
C2064       C  0.59461716  0.59524146  0.62771059     0.83600
O2065       O  0.52715566  0.59369300  0.71104604    -0.77600
C2066       C  0.59664378  0.51552233  0.73116538     0.84400
O2067       O  0.56221453  0.64962277  0.71853846    -0.77700
C2068       C  0.66913770  0.58260232  0.73812501     0.84500
C2069       C  0.59454836  0.59564655  0.83741134     0.84800
O2070       O  0.60412163  0.61719303  0.81928751    -0.80100
O2071       O  0.52693678  0.90735503  0.96223145    -0.77600
C2072       C  0.59412608  0.90508459  0.87879878     0.83400
O2073       O  0.59895027  0.83747669  0.50269420    -0.77500
O2074       O  0.65905411  0.91754116  0.95666843    -0.80200
O2075       O  0.57942194  0.97233753  0.50480244    -0.80000
O2076       O  0.53004107  0.92277428  0.52030665    -0.78600
Zn2077     Zn  0.56581628  0.88980766  0.95288793     1.55700
O2078       O  0.61341085  0.97139174  0.95872058    -0.80000
Cd2079     Cd  0.57301265  0.93130541  0.51932535     1.59700
Cd2080     Cd  0.61563347  0.87937500  0.51434803     1.59600
O2081       O  0.58546725  0.92679412  0.57234441    -0.80000
O2082       O  0.59332370  0.90628925  0.98348757    -1.90500
Cd2083     Cd  0.61807460  0.92890564  0.94865819     1.59900
O2084       O  0.60315167  0.88287516  0.57054890    -0.80000
O2085       O  0.61086174  0.92244639  0.89389978    -0.78600
C2086       C  0.57440466  0.83249060  0.98832661     0.83900
C2087       C  0.51533540  0.91562523  0.99304464     0.83600
O2088       O  0.57644953  0.88956730  0.89781913    -0.77600
C2089       C  0.59650598  0.98472413  0.48137398     0.84400
O2090       O  0.56120350  0.85108253  0.97018866    -0.77700
C2091       C  0.59419713  0.90466792  0.58848205     0.84500
C2092       C  0.66869719  0.91702039  0.48893129     0.84800
O2093       O  0.65761166  0.90023831  0.51407668    -0.80100
O2094       O  0.52693192  0.90747354  0.71208476    -0.77600
C2095       C  0.59419315  0.90511078  0.62880489     0.83400
O2096       O  0.59894373  0.83755233  0.75264362    -0.78700
O2097       O  0.65906643  0.91760268  0.70667911    -0.80200
O2098       O  0.57954914  0.97245938  0.75485215    -0.80000
O2099       O  0.53001790  0.92302663  0.77010269    -0.78600
Zn2100     Zn  0.56582198  0.88989466  0.70286530     1.55700
O2101       O  0.61347316  0.97149529  0.70869447    -0.80000
Cd2102     Cd  0.57300967  0.93142735  0.76929712     1.59700
Cd2103     Cd  0.61563375  0.87944595  0.76431254     1.59600
O2104       O  0.58532340  0.92678838  0.82236876    -0.80000
O2105       O  0.59332109  0.90638860  0.73348104    -1.90500
Cd2106     Cd  0.61809625  0.92899691  0.69865653     1.59900
O2107       O  0.60316310  0.88292629  0.82051268    -0.80000
O2108       O  0.61089068  0.92251439  0.64389854    -0.78600
C2109       C  0.57438188  0.83257872  0.73831187     0.83900
C2110       C  0.51532165  0.91583279  0.74285018     0.83600
O2111       O  0.57652800  0.88958440  0.64782753    -0.77600
C2112       C  0.59661308  0.98483790  0.73139154     0.84400
O2113       O  0.56117176  0.85118055  0.72020161    -0.77700
C2114       C  0.59411949  0.90467287  0.83847414     0.84500
C2115       C  0.66870023  0.91708533  0.73894658     0.84800
O2116       O  0.65761471  0.90029592  0.76408132    -0.80100
O2117       O  0.88296346  0.92118673  0.59507950    -0.77600
C2118       C  0.91519728  0.98467087  0.01086125     0.83400
O2119       O  0.83645747  0.90068165  0.98792757    -0.78700
O2120       O  0.91450205  0.92504447  0.91726002    -0.80200
O2121       O  0.97243133  0.91132101  0.52979083    -0.80000
O2122       O  0.92119329  0.89283956  0.59505858    -0.78600
Zn2123     Zn  0.88517352  0.93339711  0.54119847     1.55700
O2124       O  0.96951811  0.91885688  0.96915974    -0.80000
Cd2125     Cd  0.93260719  0.89268596  0.53927370     1.59700
Cd2126     Cd  0.87970100  0.88157004  0.97975573     1.59600
O2127       O  0.93676141  0.85271165  0.52260181    -0.80000
O2128       O  0.90443939  0.90865868  0.00707304    -1.90500
Cd2129     Cd  0.92730826  0.93029507  0.96963811     1.59900
O2130       O  0.89942540  0.83949635  0.98908515    -0.80000
O2131       O  0.92501790  0.97200798  0.98190315    -0.78600
C2132       C  0.83009890  0.92520911  0.00256020     0.83900
C2133       C  0.90043732  0.90561233  0.61215654     0.83600
O2134       O  0.90243325  0.97179455  0.53799221    -0.77600
C2135       C  0.98419491  0.91565501  0.99765393     0.84400
O2136       O  0.84724093  0.93833369  0.52275148    -0.77700
C2137       C  0.92377436  0.83415268  0.00414698     0.84500
C2138       C  0.89981307  0.90574828  0.90259873     0.84800
O2139       O  0.88641966  0.88662722  0.92183451    -0.80100
O2140       O  0.88285914  0.92102202  0.84510057    -0.77600
C2141       C  0.91510415  0.98474093  0.76107944     0.83400
O2142       O  0.83648621  0.90076451  0.73784858    -0.78700
O2143       O  0.91428301  0.92527282  0.66727423    -0.80200
O2144       O  0.97244676  0.91152815  0.77961858    -0.80000
O2145       O  0.92133765  0.89299696  0.84498885    -0.78600
Zn2146     Zn  0.88512782  0.93340614  0.79127377     1.55700
O2147       O  0.96946815  0.91906014  0.71899812    -0.80000
Cd2148     Cd  0.93267422  0.89282892  0.78918301     1.59700
Cd2149     Cd  0.87972937  0.88163707  0.72977099     1.59600
O2150       O  0.93684018  0.85283910  0.77253276    -0.80000
O2151       O  0.90443301  0.90874953  0.75707160    -1.90500
Cd2152     Cd  0.92721518  0.93044704  0.71962528     1.59900
O2153       O  0.89943595  0.83957581  0.73916545    -0.80000
O2154       O  0.92488698  0.97211236  0.73207494    -0.78600
C2155       C  0.83010693  0.92527497  0.75251606     0.83900
C2156       C  0.90047128  0.90557042  0.86212991     0.83600
O2157       O  0.90237885  0.97183397  0.78821843    -0.77600
C2158       C  0.98417882  0.91586866  0.74746811     0.84400
O2159       O  0.84721804  0.93837461  0.77277579    -0.77700
C2160       C  0.92381496  0.83425375  0.75416160     0.84500
C2161       C  0.89975731  0.90584530  0.65262298     0.84800
O2162       O  0.88652983  0.88662540  0.67186748    -0.80100
O2163       O  0.96375369  0.80635766  0.51858054    -0.77600
C2164       C  0.99818240  0.75017043  0.60188386     0.83400
O2165       O  0.56164200  0.78559928  0.97116642    -0.78700
O2166       O  0.53701489  0.69249643  0.51693422    -0.80200
O2167       O  0.93475950  0.71314960  0.97850291    -0.80000
O2168       O  0.93438123  0.78694615  0.97866454    -0.78600
Zn2169     Zn  0.99936960  0.78329643  0.52865357     1.55700
O2170       O  0.96355777  0.69286546  0.51876207    -0.80000
Cd2171     Cd  0.96058602  0.75025026  0.96770901     1.59700
Cd2172     Cd  0.53521109  0.75034727  0.96302418     1.59600
O2173       O  0.97359350  0.75046579  0.91108345    -0.80000
O2174       O  0.99848091  0.75057724  0.99663719    -1.90500
Cd2175     Cd  0.99986220  0.71664659  0.52911828     1.59900
O2176       O  0.52223797  0.75068880  0.90824693    -0.80000
O2177       O  0.99862303  0.72628820  0.58536606    -0.78600
C2178       C  0.55772149  0.80610098  0.99384075     0.83900
C2179       C  0.94065294  0.80719304  0.00042509     0.83600
O2180       O  0.99836076  0.77354101  0.58390757    -0.77600
C2181       C  0.94068540  0.69257217  0.00010594     0.84400
O2182       O  0.53552220  0.80715246  0.51629027    -0.77700
C2183       C  0.49796161  0.75061328  0.89269359     0.84500
C2184       C  0.55845143  0.69401924  0.99332016     0.84800
O2185       O  0.56130506  0.71460639  0.97037589    -0.80100
O2186       O  0.96376837  0.80643263  0.76862278    -0.77600
C2187       C  0.99821059  0.75018066  0.85188524     0.83400
O2188       O  0.56159916  0.78570612  0.72110251    -0.78700
O2189       O  0.53704318  0.69258867  0.76689756    -0.80200
O2190       O  0.93474048  0.71322280  0.72851787    -0.80000
O2191       O  0.93439205  0.78704028  0.72869061    -0.78600
Zn2192     Zn  0.99937668  0.78335244  0.77867900     1.55700
O2193       O  0.96357653  0.69291022  0.76870890    -0.80000
Cd2194     Cd  0.96056806  0.75032573  0.71771375     1.59700
Cd2195     Cd  0.53519225  0.75043447  0.71299438     1.59600
O2196       O  0.97356443  0.75051190  0.66108173    -0.80000
O2197       O  0.99847199  0.75065076  0.74662623    -1.90500
Cd2198     Cd  0.99987131  0.71670636  0.77907842     1.59900
O2199       O  0.52220912  0.75072698  0.65823329    -0.80000
O2200       O  0.99863795  0.72631151  0.83533667    -0.78600
C2201       C  0.55770329  0.80618520  0.74381760     0.83900
C2202       C  0.94067239  0.80728121  0.75045892     0.83600
O2203       O  0.99838695  0.77356462  0.83393569    -0.77600
C2204       C  0.94068834  0.69262754  0.75008251     0.84400
O2205       O  0.53552915  0.80721338  0.76631154    -0.77700
C2206       C  0.99793124  0.75063816  0.64268771     0.84500
C2207       C  0.55848318  0.69412979  0.74329251     0.84800
O2208       O  0.56132186  0.71471916  0.72034960    -0.80100
loop_ 
_geom_bond_atom_site_label_1 
_geom_bond_atom_site_label_2 
_geom_bond_distance 
_geom_bond_site_symmetry_2 
_ccdc_geom_bond_type 
O1           C17   1.284       .  A
O1           Zn7   2.084       .  S
C2           O18   1.278       .  A
C2           O15   1.270       .  A
C2          C596   1.471       .  S
O3          C292   1.274   1_554  A
O3          Cd10   2.094       .  S
O4          C298   1.280       .  A
O4         Cd565   2.084   1_545  S
O5           C19   1.276   1_554  A
O5           Cd9   2.118       .  S
O6          C293   1.274   1_554  A
O6           Cd9   2.092       .  S
Zn7          O18   2.065       .  S
Zn7         O572   2.085       .  S
Zn7          O12   1.961       .  S
O8          C295   1.280       .  A
O8          Cd13   2.084       .  S
Cd9          O11   2.097       .  S
Cd9         O288   2.054   1_554  S
Cd10         O14   2.096       .  S
Cd10         O23   2.119       .  S
Cd10        O840   2.054   1_544  S
O11         C573   1.280       .  A
O12         Cd13   1.979       .  S
O12        Cd285   2.054       .  S
O12        Cd838   2.054       .  S
Cd13         O15   2.060       .  S
Cd13        O556   2.084       .  S
O14          C21   1.280   1_545  A
C16          O20   1.284       .  A
C16         O279   1.274       .  A
C16          C62   1.481       .  S
C17         O282   1.274       .  A
C17         C200   1.479       .  S
C19         O284   1.280       .  A
C19         C160   1.487       .  S
O20        Zn559   2.085   1_545  S
C21         O563   1.280       .  A
C21         C577   1.471       .  S
C22          O23   1.276   1_556  A
C22         O280   1.280       .  A
C22         C389   1.487       .  S
O24          C40   1.284       .  A
O24        Zn582   2.084       .  S
C25          O41   1.278       .  A
C25          O38   1.270       .  A
C25         C573   1.471       .  S
O26          C39   1.274       .  A
O26         Cd33   2.093       .  S
O27          C45   1.280       .  A
O27         Cd36   2.084   1_545  S
O28          C42   1.276       .  A
O28         Cd32   2.118       .  S
O29          C40   1.274       .  A
O29         Cd32   2.092       .  S
Zn30         O43   2.086   1_565  S
Zn30        O576   2.084       .  S
Zn30        O593   2.065       .  S
Zn30         O35   1.961       .  S
O31          C42   1.280       .  A
O31        Cd588   2.084       .  S
Cd32         O34   2.097       .  S
Cd32        O587   2.054       .  S
Cd33         O37   2.096       .  S
Cd33         O46   2.119       .  S
Cd33         O35   2.054   1_545  S
O34         C596   1.280       .  A
O35         Cd36   1.979       .  S
O35        Cd584   2.054       .  S
Cd36        O583   2.084       .  S
Cd36        O590   2.061       .  S
O37          C44   1.280   1_545  A
O38        Cd588   2.061       .  S
C39          O43   1.284       .  A
C39          C85   1.480       .  S
C40         C223   1.479       .  S
O41        Zn582   2.065       .  S
C42         C183   1.487       .  S
C44         O586   1.280       .  A
C44         C554   1.471       .  S
C45          O46   1.276       .  A
C45         C136   1.487       .  S
O47         C339   1.270       .  A
O47         Zn53   1.974       .  S
C48          O64   1.270       .  A
C48          O61   1.268       .  A
C48          C90   1.457       .  S
O49          C62   1.298       .  A
O49         Cd56   2.205       .  S
O50         C344   1.267       .  A
O50         Cd59   1.975       .  S
O51          C65   1.266       .  A
O51         Cd55   2.029       .  S
O52          C63   1.269       .  A
O52         Cd55   2.015       .  S
Zn53         O64   2.021       .  S
Zn53         O66   1.920       .  S
Zn53        O334   1.888       .  S
O54         C341   1.272   1_554  A
O54         Cd59   2.053       .  S
Cd55         O57   2.021       .  S
Cd55         O58   1.957       .  S
Cd56         O60   2.108       .  S
Cd56         O69   2.214       .  S
Cd56         O58   2.005       .  S
O57          C67   1.266       .  A
O58        Zn329   1.888       .  S
O58        Cd335   1.935       .  S
Cd59         O61   2.052       .  S
Cd59        O334   1.935       .  S
O60          C67   1.276       .  A
C62         O342   1.264       .  A
C63         O323   1.270       .  A
C63         C738   1.439   1_545  S
C65         O330   1.272       .  A
C65        C1198   1.444       .  S
O66         C338   1.264       .  A
C67          C71   1.457       .  S
C68          O69   1.298       .  A
C68         O326   1.267       .  A
C68         C249   1.493       .  S
O70          C86   1.270       .  A
O70         Zn76   1.974       .  S
C71          O87   1.270       .  A
C71          O84   1.268       .  A
O72          C85   1.298       .  A
O72         Cd79   2.205       .  S
O73          C91   1.267       .  A
O73         Cd82   1.976       .  S
O74          C88   1.267       .  A
O74         Cd78   2.030       .  S
O75          C86   1.269       .  A
O75         Cd78   2.015       .  S
Zn76         O87   2.021       .  S
Zn76         O89   1.919       .  S
Zn76         O81   1.888       .  S
O77          C88   1.271       .  A
O77         Cd82   2.053       .  S
Cd78         O80   2.021       .  S
Cd78         O81   1.957       .  S
Cd79         O83   2.108       .  S
Cd79         O92   2.214       .  S
Cd79         O81   2.005       .  S
O80          C90   1.266       .  A
O81         Cd82   1.935       .  S
Cd82         O84   2.052       .  S
O83          C90   1.276       .  A
C85          O89   1.263       .  A
C86         C761   1.439   1_545  S
C88        C1221   1.444       .  S
C91          O92   1.298       .  A
C91         C272   1.493       .  S
O93         C109   1.271       .  A
O93         Zn99   2.020       .  S
C94         O110   1.272       .  A
C94         O383   1.267       .  A
C94        C1169   1.444   1_455  S
O95         C384   1.293   1_554  A
O95        Cd102   2.166       .  S
O96         C114   1.266       .  A
O96        Cd105   2.032       .  S
O97         C111   1.270       .  A
O97        Cd101   2.041       .  S
O98         C109   1.267       .  A
O98        Cd101   2.041       .  S
Zn99        O110   1.998       .  S
Zn99        O112   1.933       .  S
Zn99        O104   1.894       .  S
O100        C387   1.269   1_554  A
O100       Cd105   2.016       .  S
Cd101       O103   2.005       .  S
Cd101       O104   1.969       .  S
Cd102       O106   2.176       .  S
Cd102       O115   2.084       .  S
Cd102       O380   2.003   1_554  S
O103        C113   1.265       .  A
O104       Cd378   2.003       .  S
O104       Cd381   1.958       .  S
Cd105       O107   2.026       .  S
Cd105       O380   1.958   1_554  S
O106        C389   1.288   1_554  A
O107        C370   1.267   1_554  A
C108        O112   1.265       .  A
C108        O371   1.293       .  A
C108        C252   1.470       .  S
C109        C137   1.453       .  S
C111        O376   1.269       .  A
C111        C985   1.443   1_545  S
C113        O382   1.288       .  A
C113        C298   1.487       .  S
C114        O115   1.272       .  A
C114        C132   1.452       .  S
O116        C132   1.271       .  A
O116       Zn122   2.020       .  S
C117        O133   1.272       .  A
C117        O130   1.267       .  A
C117       C1192   1.444   1_455  S
O118        C131   1.293       .  A
O118       Cd125   2.166       .  S
O119        C137   1.266       .  A
O119       Cd128   2.032       .  S
O120        C134   1.270       .  A
O120       Cd124   2.041       .  S
O121        C132   1.267       .  A
O121       Cd124   2.041       .  S
Zn122       O133   1.999       .  S
Zn122       O135   1.933       .  S
Zn122       O127   1.895       .  S
O123        C134   1.269       .  A
O123       Cd128   2.016       .  S
Cd124       O126   2.005       .  S
Cd124       O127   1.969       .  S
Cd125       O129   2.176       .  S
Cd125       O138   2.084       .  S
Cd125       O127   2.003       .  S
O126        C136   1.265       .  A
O127       Cd128   1.958       .  S
Cd128       O130   2.026       .  S
O129        C136   1.288       .  A
C131        O135   1.265       .  A
C131        C275   1.470       .  S
C134        C732   1.443   1_545  S
C137        O138   1.272       .  A
O139        C155   1.272       .  A
O139       Zn145   1.995       .  S
C140        O156   1.271       .  A
C140        O153   1.267       .  A
C140        C182   1.453       .  S
O141        C430   1.292   1_554  A
O141       Cd148   2.165       .  S
O142        C436   1.265       .  A
O142       Cd151   2.005       .  S
O143        C157   1.269   1_554  A
O143       Cd147   2.016       .  S
O144        C431   1.268   1_554  A
O144       Cd147   2.028       .  S
Zn145       O156   2.021       .  S
Zn145       O158   1.931       .  S
Zn145       O150   1.891       .  S
O146        C433   1.271       .  A
O146       Cd151   2.041       .  S
Cd147       O149   2.032       .  S
Cd147       O426   1.957   1_554  S
Cd148       O152   2.086       .  S
Cd148       O161   2.176       .  S
Cd148       O426   2.002   1_554  S
O149        C159   1.266       .  A
O150       Cd151   1.968       .  S
O150       Cd423   1.957       .  S
O150       Cd424   2.002       .  S
Cd151       O153   2.040       .  S
O152        C159   1.272       .  A
C154        O158   1.265       .  A
C154        O417   1.292       .  A
C154        C246   1.469       .  S
C155        O420   1.268       .  A
C155       C1307   1.443   1_455  S
C157        O422   1.271       .  A
C157        C939   1.443       .  S
C159        C163   1.453       .  S
C160        O161   1.288   1_556  A
C160        O418   1.265       .  A
O162        C178   1.272       .  A
O162       Zn168   1.995       .  S
C163        O179   1.271       .  A
C163        O176   1.267       .  A
O164        C177   1.292       .  A
O164       Cd171   2.166       .  S
O165        C183   1.265       .  A
O165       Cd174   2.005       .  S
O166        C180   1.269       .  A
O166       Cd170   2.016       .  S
O167        C178   1.268       .  A
O167       Cd170   2.027       .  S
Zn168       O179   2.021       .  S
Zn168       O181   1.932       .  S
Zn168       O173   1.891       .  S
O169        C180   1.271       .  A
O169       Cd174   2.042       .  S
Cd170       O172   2.032       .  S
Cd170       O173   1.957       .  S
Cd171       O175   2.086       .  S
Cd171       O184   2.176       .  S
Cd171       O173   2.002       .  S
O172        C182   1.266       .  A
O173       Cd174   1.968       .  S
Cd174       O176   2.040       .  S
O175        C182   1.272       .  A
C177        O181   1.265       .  A
C177        C269   1.469       .  S
C178       C1330   1.443   1_455  S
C180        C686   1.443       .  S
C183        O184   1.288       .  A
O185        C201   1.271       .  A
O185       Zn191   2.021       .  S
C186        O199   1.268       .  A
C186        O478   1.270       .  A
C186        C615   1.439       .  S
O187        C200   1.298       .  A
O187       Cd194   2.202       .  S
O188        C206   1.265       .  A
O188       Cd197   2.021       .  S
O189        C479   1.272   1_554  A
O189       Cd193   2.054       .  S
O190        C201   1.269       .  A
O190       Cd193   2.054       .  S
Zn191       O202   1.975       .  S
Zn191       O204   1.921       .  S
Zn191       O472   1.888       .  S
O192        C203   1.266       .  A
O192       Cd197   2.026       .  S
Cd193       O195   1.982       .  S
Cd193       O472   1.936       .  S
Cd194       O198   2.211       .  S
Cd194       O207   2.108       .  S
Cd194       O196   2.004       .  S
O195        C481   1.267       .  A
O196       Zn467   1.888       .  S
O196       Cd197   1.957       .  S
O196       Cd469   1.936       .  S
Cd197       O199   2.014       .  S
O198        C205   1.298       .  A
C200        O480   1.264       .  A
C201        C229   1.457       .  S
O202        C462   1.270       .  A
C203        O465   1.272       .  A
C203       C1259   1.443       .  S
O204        C476   1.264       .  A
C205        O471   1.267       .  A
C205        C247   1.493       .  S
C206        O207   1.276       .  A
C206        C224   1.457       .  S
O208        C224   1.271       .  A
O208       Zn214   2.021       .  S
C209        O225   1.270       .  A
C209        O222   1.268       .  A
C209        C638   1.439       .  S
O210        C223   1.298       .  A
O210       Cd217   2.202       .  S
O211        C229   1.266       .  A
O211       Cd220   2.021       .  S
O212        C226   1.272       .  A
O212       Cd216   2.054       .  S
O213        C224   1.269       .  A
O213       Cd216   2.054       .  S
Zn214       O225   1.976       .  S
Zn214       O227   1.921       .  S
Zn214       O219   1.888       .  S
O215        C226   1.267       .  A
O215       Cd220   2.027       .  S
Cd216       O218   1.982       .  S
Cd216       O219   1.936       .  S
Cd217       O221   2.210       .  S
Cd217       O230   2.107       .  S
Cd217       O219   2.004       .  S
O218        C228   1.268       .  A
O219       Cd220   1.957       .  S
Cd220       O222   2.013       .  S
O221        C228   1.298       .  A
C223        O227   1.264       .  A
C226       C1282   1.443       .  S
C228        C270   1.492       .  S
C229        O230   1.276       .  A
O231        C523   1.280       .  A
O231       Zn237   2.020       .  S
C232        O248   1.274       .  A
C232        O245   1.272       .  A
C232        C274   1.470       .  S
O233        C246   1.273       .  A
O233       Cd240   2.090       .  S
O234        C528   1.278   1_554  A
O234      Cd1347   2.091   1_455  S
O235        C249   1.278       .  A
O235       Cd239   2.139       .  S
O236        C247   1.277       .  A
O236       Cd239   2.137       .  S
Zn237       O248   2.040       .  S
Zn237      O1354   2.045       .  S
Zn237       O518   1.927   1_554  S
O238        C525   1.281       .  A
O238       Cd243   2.067       .  S
Cd239       O241   2.100       .  S
Cd239       O242   2.083       .  S
Cd240       O244   2.090       .  S
Cd240       O253   2.094       .  S
Cd240      O1346   2.040   1_455  S
O241       C1355   1.281       .  A
O242       Zn513   1.927       .  S
O242      Cd1344   2.040       .  S
O242       Cd519   1.979       .  S
Cd243       O245   2.076       .  S
Cd243      O1338   2.091       .  S
Cd243       O518   1.979   1_554  S
O244        C251   1.279   1_455  A
C246        O526   1.278       .  A
C247        O507   1.280       .  A
C249        O514   1.281       .  A
O250        C522   1.278   1_554  A
O250      Zn1341   2.045   1_455  S
C251       O1345   1.281       .  A
C251       C1359   1.470       .  S
C252        O253   1.274       .  A
C252        O510   1.278       .  A
O254        C270   1.280       .  A
O254       Zn260   2.020       .  S
C255        O271   1.274       .  A
C255        O268   1.272       .  A
C255       C1355   1.470       .  S
O256        C269   1.273       .  A
O256       Cd263   2.089       .  S
O257        C275   1.278       .  A
O257      Cd1370   2.091   1_455  S
O258        C272   1.278       .  A
O258       Cd262   2.139       .  S
O259        C270   1.277       .  A
O259       Cd262   2.137       .  S
Zn260       O271   2.040       .  S
Zn260      O1377   2.045       .  S
Zn260       O265   1.928       .  S
O261        C272   1.281       .  A
O261       Cd266   2.068       .  S
Cd262       O264   2.100       .  S
Cd262       O265   2.083       .  S
Cd263       O267   2.090       .  S
Cd263       O276   2.094       .  S
Cd263      O1369   2.040   1_455  S
O264        C274   1.281       .  A
O265       Cd266   1.979       .  S
O265      Cd1367   2.040       .  S
Cd266       O268   2.076       .  S
Cd266      O1361   2.091       .  S
O267       C1378   1.279   1_455  A
C269        O273   1.278       .  A
O273      Zn1364   2.045   1_455  S
C274       O1371   1.279       .  A
C275        O276   1.274       .  A
O277        C293   1.284       .  A
O277       Zn283   2.084       .  S
C278        O294   1.278       .  A
C278        O291   1.270       .  A
C278        C872   1.471       .  S
O279       Cd286   2.094       .  S
O280       Cd841   2.084   1_545  S
O281        C295   1.276       .  A
O281       Cd285   2.118       .  S
O282       Cd285   2.092       .  S
Zn283       O294   2.065       .  S
Zn283       O848   2.085       .  S
Zn283       O288   1.961       .  S
O284       Cd289   2.084       .  S
Cd285       O287   2.097       .  S
Cd286       O290   2.096       .  S
Cd286       O299   2.119       .  S
Cd286       O564   2.054   1_545  S
O287        C849   1.280       .  A
O288       Cd562   2.054   1_556  S
O288       Cd289   1.979       .  S
Cd289       O832   2.084       .  S
Cd289       O291   2.060       .  S
O290        C297   1.280   1_545  A
C292        O296   1.284       .  A
C292        C338   1.481   1_556  S
C293        C476   1.479   1_556  S
C295        C436   1.487       .  S
O296       Zn835   2.085   1_545  S
C297        O839   1.280       .  A
C297        C853   1.471       .  S
C298        O299   1.276       .  A
O300        C316   1.284       .  A
O300       Zn858   2.084       .  S
C301        O317   1.278       .  A
C301        O314   1.270       .  A
C301        C849   1.471       .  S
O302        C315   1.274       .  A
O302       Cd309   2.093       .  S
O303        C321   1.280       .  A
O303       Cd312   2.084   1_545  S
O304        C318   1.276       .  A
O304       Cd308   2.118       .  S
O305        C316   1.274       .  A
O305       Cd308   2.092       .  S
Zn306       O852   2.084       .  S
Zn306       O869   2.065       .  S
Zn306       O319   2.086   1_565  S
Zn306       O311   1.961       .  S
O307        C318   1.280       .  A
O307       Cd864   2.084       .  S
Cd308       O310   2.097       .  S
Cd308       O863   2.054       .  S
Cd309       O313   2.096       .  S
Cd309       O322   2.119       .  S
Cd309       O311   2.054   1_545  S
O310        C872   1.280       .  A
O311       Cd860   2.054       .  S
O311       Cd312   1.979       .  S
Cd312       O859   2.084       .  S
Cd312       O866   2.061       .  S
O313        C320   1.280   1_545  A
O314       Cd864   2.061       .  S
C315        O319   1.284       .  A
C315        C361   1.480       .  S
C316        C499   1.479       .  S
O317       Zn858   2.065       .  S
C318        C459   1.487       .  S
C320        O862   1.280       .  A
C320        C830   1.471       .  S
C321        O322   1.276       .  A
C321        C412   1.487       .  S
O323       Zn329   1.974       .  S
C324        O340   1.270       .  A
C324        O337   1.268       .  A
C324        C366   1.457       .  S
O325        C338   1.298   1_556  A
O325       Cd332   2.205       .  S
O326       Cd335   1.975       .  S
O327        C341   1.266       .  A
O327       Cd331   2.029       .  S
O328        C339   1.269   1_556  A
O328       Cd331   2.015       .  S
Zn329       O340   2.021       .  S
Zn329       O342   1.920       .  S
O330       Cd335   2.053       .  S
Cd331       O333   2.021       .  S
Cd331       O334   1.957   1_556  S
Cd332       O336   2.108       .  S
Cd332       O345   2.214       .  S
Cd332       O334   2.005   1_556  S
O333        C343   1.266       .  A
Cd335       O337   2.052       .  S
O336        C343   1.276       .  A
C339       C1014   1.439   1_545  S
C341       C1474   1.444       .  S
C343        C347   1.457       .  S
C344        O345   1.298   1_554  A
C344        C525   1.493       .  S
O346        C362   1.270       .  A
O346       Zn352   1.974       .  S
C347        O363   1.270       .  A
C347        O360   1.268       .  A
O348        C361   1.298       .  A
O348       Cd355   2.205       .  S
O349        C367   1.267       .  A
O349       Cd358   1.976       .  S
O350        C364   1.267       .  A
O350       Cd354   2.030       .  S
O351        C362   1.269       .  A
O351       Cd354   2.015       .  S
Zn352       O363   2.021       .  S
Zn352       O365   1.919       .  S
Zn352       O357   1.888       .  S
O353        C364   1.271       .  A
O353       Cd358   2.053       .  S
Cd354       O356   2.021       .  S
Cd354       O357   1.957       .  S
Cd355       O359   2.108       .  S
Cd355       O368   2.214       .  S
Cd355       O357   2.005       .  S
O356        C366   1.266       .  A
O357       Cd358   1.935       .  S
Cd358       O360   2.052       .  S
O359        C366   1.276       .  A
C361        O365   1.263       .  A
C362       C1037   1.439   1_545  S
C364       C1497   1.444       .  S
C367        O368   1.298       .  A
C367        C548   1.493       .  S
O369        C385   1.271       .  A
O369       Zn375   2.020       .  S
C370        O386   1.272       .  A
C370       C1445   1.444   1_455  S
O371       Cd378   2.166       .  S
O372        C390   1.266       .  A
O372       Cd381   2.032       .  S
O373        C387   1.270       .  A
O373       Cd377   2.041       .  S
O374        C385   1.267       .  A
O374       Cd377   2.041       .  S
Zn375       O386   1.998       .  S
Zn375       O388   1.933       .  S
Zn375       O380   1.894       .  S
O376       Cd381   2.016       .  S
Cd377       O379   2.005       .  S
Cd377       O380   1.969       .  S
Cd378       O382   2.176       .  S
Cd378       O391   2.084       .  S
O379        C389   1.265       .  A
Cd381       O383   2.026       .  S
C384        O388   1.265       .  A
C384        C528   1.470       .  S
C385        C413   1.453       .  S
C387        C709   1.443   1_545  S
C390        O391   1.272       .  A
C390        C408   1.452       .  S
O392        C408   1.271       .  A
O392       Zn398   2.020       .  S
C393        O409   1.272       .  A
C393        O406   1.267       .  A
C393       C1468   1.444   1_455  S
O394        C407   1.293       .  A
O394       Cd401   2.166       .  S
O395        C413   1.266       .  A
O395       Cd404   2.032       .  S
O396        C410   1.270       .  A
O396       Cd400   2.041       .  S
O397        C408   1.267       .  A
O397       Cd400   2.041       .  S
Zn398       O409   1.999       .  S
Zn398       O411   1.933       .  S
Zn398       O403   1.895       .  S
O399        C410   1.269       .  A
O399       Cd404   2.016       .  S
Cd400       O402   2.005       .  S
Cd400       O403   1.969       .  S
Cd401       O405   2.176       .  S
Cd401       O414   2.084       .  S
Cd401       O403   2.003       .  S
O402        C412   1.265       .  A
O403       Cd404   1.958       .  S
Cd404       O406   2.026       .  S
O405        C412   1.288       .  A
C407        O411   1.265       .  A
C407        C551   1.470       .  S
C410       C1008   1.443   1_545  S
C413        O414   1.272       .  A
O415        C431   1.272       .  A
O415       Zn421   1.995       .  S
C416        O432   1.271       .  A
C416        O429   1.267       .  A
C416        C458   1.453       .  S
O417       Cd424   2.165       .  S
O418       Cd427   2.005       .  S
O419        C433   1.269       .  A
O419       Cd423   2.016       .  S
O420       Cd423   2.028       .  S
Zn421       O432   2.021       .  S
Zn421       O434   1.931       .  S
Zn421       O426   1.891       .  S
O422       Cd427   2.041       .  S
Cd423       O425   2.032       .  S
Cd424       O428   2.086       .  S
Cd424       O437   2.176       .  S
O425        C435   1.266       .  A
O426       Cd427   1.968       .  S
Cd427       O429   2.040       .  S
O428        C435   1.272       .  A
C430        O434   1.265       .  A
C430        C522   1.469       .  S
C431       C1583   1.443   1_455  S
C433        C663   1.443       .  S
C435        C439   1.453       .  S
C436        O437   1.288       .  A
O438        C454   1.272       .  A
O438       Zn444   1.995       .  S
C439        O455   1.271       .  A
C439        O452   1.267       .  A
O440        C453   1.292       .  A
O440       Cd447   2.166       .  S
O441        C459   1.265       .  A
O441       Cd450   2.005       .  S
O442        C456   1.269       .  A
O442       Cd446   2.016       .  S
O443        C454   1.268       .  A
O443       Cd446   2.027       .  S
Zn444       O455   2.021       .  S
Zn444       O457   1.932       .  S
Zn444       O449   1.891       .  S
O445        C456   1.271       .  A
O445       Cd450   2.042       .  S
Cd446       O448   2.032       .  S
Cd446       O449   1.957       .  S
Cd447       O451   2.086       .  S
Cd447       O460   2.176       .  S
Cd447       O449   2.002       .  S
O448        C458   1.266       .  A
O449       Cd450   1.968       .  S
Cd450       O452   2.040       .  S
O451        C458   1.272       .  A
C453        O457   1.265       .  A
C453        C545   1.469       .  S
C454       C1606   1.443   1_455  S
C456        C962   1.443       .  S
C459        O460   1.288       .  A
O461        C477   1.271       .  A
O461       Zn467   2.021       .  S
C462        O475   1.268   1_554  A
C462        C891   1.439       .  S
O463        C476   1.298   1_556  A
O463       Cd470   2.202       .  S
O464        C482   1.265       .  A
O464       Cd473   2.021       .  S
O465       Cd469   2.054       .  S
O466        C477   1.269       .  A
O466       Cd469   2.054       .  S
Zn467       O478   1.975       .  S
Zn467       O480   1.921       .  S
O468        C479   1.266       .  A
O468       Cd473   2.026       .  S
Cd469       O471   1.982       .  S
Cd470       O474   2.211       .  S
Cd470       O483   2.108       .  S
Cd470       O472   2.004   1_556  S
O472       Cd473   1.957   1_554  S
Cd473       O475   2.014       .  S
O474        C481   1.298   1_556  A
C477        C505   1.457       .  S
C479       C1535   1.443       .  S
C481        C523   1.493       .  S
C482        O483   1.276       .  A
C482        C500   1.457       .  S
O484        C500   1.271       .  A
O484       Zn490   2.021       .  S
C485        O501   1.270       .  A
C485        O498   1.268       .  A
C485        C914   1.439       .  S
O486        C499   1.298       .  A
O486       Cd493   2.202       .  S
O487        C505   1.266       .  A
O487       Cd496   2.021       .  S
O488        C502   1.272       .  A
O488       Cd492   2.054       .  S
O489        C500   1.269       .  A
O489       Cd492   2.054       .  S
Zn490       O501   1.976       .  S
Zn490       O503   1.921       .  S
Zn490       O495   1.888       .  S
O491        C502   1.267       .  A
O491       Cd496   2.027       .  S
Cd492       O494   1.982       .  S
Cd492       O495   1.936       .  S
Cd493       O497   2.210       .  S
Cd493       O506   2.107       .  S
Cd493       O495   2.004       .  S
O494        C504   1.268       .  A
O495       Cd496   1.957       .  S
Cd496       O498   2.013       .  S
O497        C504   1.298       .  A
C499        O503   1.264       .  A
C502       C1558   1.443       .  S
C504        C546   1.492       .  S
C505        O506   1.276       .  A
O507       Zn513   2.020       .  S
C508        O524   1.274       .  A
C508        O521   1.272       .  A
C508        C550   1.470       .  S
O509        C522   1.273       .  A
O509       Cd516   2.090       .  S
O510      Cd1623   2.091   1_455  S
O511        C525   1.278   1_556  A
O511       Cd515   2.139       .  S
O512        C523   1.277   1_556  A
O512       Cd515   2.137       .  S
Zn513       O524   2.040       .  S
Zn513      O1630   2.045       .  S
O514       Cd519   2.067       .  S
Cd515       O517   2.100       .  S
Cd515       O518   2.083       .  S
Cd516       O520   2.090       .  S
Cd516       O529   2.094       .  S
Cd516      O1622   2.040   1_455  S
O517       C1631   1.281       .  A
O518      Cd1620   2.040       .  S
Cd519      O1614   2.091       .  S
Cd519       O521   2.076       .  S
O520        C527   1.279   1_455  A
O526      Zn1617   2.045   1_455  S
C527       O1621   1.281       .  A
C527       C1635   1.470       .  S
C528        O529   1.274       .  A
O530        C546   1.280       .  A
O530       Zn536   2.020       .  S
C531        O547   1.274       .  A
C531        O544   1.272       .  A
C531       C1631   1.470       .  S
O532        C545   1.273       .  A
O532       Cd539   2.089       .  S
O533        C551   1.278       .  A
O533      Cd1646   2.091   1_455  S
O534        C548   1.278       .  A
O534       Cd538   2.139       .  S
O535        C546   1.277       .  A
O535       Cd538   2.137       .  S
Zn536       O547   2.040       .  S
Zn536      O1653   2.045       .  S
Zn536       O541   1.928       .  S
O537        C548   1.281       .  A
O537       Cd542   2.068       .  S
Cd538       O540   2.100       .  S
Cd538       O541   2.083       .  S
Cd539       O543   2.090       .  S
Cd539       O552   2.094       .  S
Cd539      O1645   2.040   1_455  S
O540        C550   1.281       .  A
O541      Cd1643   2.040       .  S
O541       Cd542   1.979       .  S
Cd542      O1637   2.091       .  S
Cd542       O544   2.076       .  S
O543       C1654   1.279   1_455  A
C545        O549   1.278       .  A
O549      Zn1640   2.045   1_455  S
C550       O1647   1.279       .  A
C551        O552   1.274       .  A
O553        C569   1.284       .  A
O553       Zn559   2.084       .  S
C554        O570   1.278       .  A
C554        O567   1.270       .  A
O555        C844   1.274   1_554  A
O555       Cd562   2.094       .  S
O556        C850   1.280       .  A
O557        C571   1.276   1_554  A
O557       Cd561   2.118       .  S
O558        C845   1.274   1_554  A
O558       Cd561   2.092       .  S
Zn559       O570   2.065       .  S
Zn559       O564   1.961       .  S
O560        C847   1.280       .  A
O560       Cd565   2.084       .  S
Cd561       O563   2.097       .  S
Cd561       O840   2.054   1_554  S
Cd562       O566   2.096       .  S
Cd562       O575   2.119       .  S
O564       Cd837   2.054       .  S
O564       Cd565   1.979       .  S
Cd565       O567   2.060       .  S
O566        C573   1.280       .  A
C568        O831   1.274       .  A
C568        O572   1.284       .  A
C568        C614   1.481       .  S
C569        O834   1.274       .  A
C569        C752   1.479       .  S
C571        O836   1.280       .  A
C571        C712   1.487       .  S
C574        O832   1.280       .  A
C574        O575   1.276   1_556  A
C574        C941   1.487       .  S
O576        C592   1.284       .  A
C577        O593   1.278       .  A
C577        O590   1.270       .  A
O578        C591   1.274       .  A
O578       Cd585   2.093       .  S
O579        C597   1.280       .  A
O579       Cd588   2.084       .  S
O580        C594   1.276       .  A
O580       Cd584   2.118       .  S
O581        C592   1.274       .  A
O581       Cd584   2.092       .  S
Zn582       O595   2.086       .  S
Zn582       O587   1.961       .  S
O583        C594   1.280       .  A
Cd584       O586   2.097       .  S
Cd585       O589   2.096       .  S
Cd585       O598   2.119       .  S
Cd585       O587   2.054       .  S
O587       Cd588   1.979       .  S
O589        C596   1.280       .  A
C591        O595   1.284       .  A
C591        C637   1.480       .  S
C592        C775   1.479       .  S
C594        C735   1.487       .  S
C597        O598   1.276       .  A
C597        C688   1.487       .  S
O599        C891   1.270       .  A
O599       Zn605   1.974       .  S
C600        O616   1.270       .  A
C600        O613   1.268       .  A
C600        C642   1.457       .  S
O601        C614   1.298       .  A
O601       Cd608   2.205       .  S
O602        C896   1.267       .  A
O602       Cd611   1.975       .  S
O603        C617   1.266       .  A
O603       Cd607   2.029       .  S
O604        C615   1.269       .  A
O604       Cd607   2.015       .  S
Zn605       O616   2.021       .  S
Zn605       O618   1.920       .  S
Zn605       O886   1.888       .  S
O606        C893   1.272   1_554  A
O606       Cd611   2.053       .  S
Cd607       O609   2.021       .  S
Cd607       O610   1.957       .  S
Cd608       O612   2.108       .  S
Cd608       O621   2.214       .  S
Cd608       O610   2.005       .  S
O609        C619   1.266       .  A
O610       Zn881   1.888       .  S
O610       Cd887   1.935       .  S
Cd611       O613   2.052       .  S
Cd611       O886   1.935       .  S
O612        C619   1.276       .  A
C614        O894   1.264       .  A
C615        O875   1.270       .  A
C617        O882   1.272       .  A
C617       C1750   1.444       .  S
O618        C890   1.264       .  A
C619        C623   1.457       .  S
C620        O878   1.267       .  A
C620        O621   1.298       .  A
C620        C801   1.493       .  S
O622        C638   1.270       .  A
O622       Zn628   1.974       .  S
C623        O639   1.270       .  A
C623        O636   1.268       .  A
O624        C637   1.298       .  A
O624       Cd631   2.205       .  S
O625        C643   1.267       .  A
O625       Cd634   1.976       .  S
O626        C640   1.267       .  A
O626       Cd630   2.030       .  S
O627        C638   1.269       .  A
O627       Cd630   2.015       .  S
Zn628       O639   2.021       .  S
Zn628       O641   1.919       .  S
Zn628       O633   1.888       .  S
O629        C640   1.271       .  A
O629       Cd634   2.053       .  S
Cd630       O632   2.021       .  S
Cd630       O633   1.957       .  S
Cd631       O635   2.108       .  S
Cd631       O644   2.214       .  S
Cd631       O633   2.005       .  S
O632        C642   1.266       .  A
O633       Cd634   1.935       .  S
Cd634       O636   2.052       .  S
O635        C642   1.276       .  A
C637        O641   1.263       .  A
C640       C1773   1.444       .  S
C643        O644   1.298       .  A
C643        C824   1.493       .  S
O645        C661   1.271       .  A
O645       Zn651   2.020       .  S
C646        O662   1.272       .  A
C646        O935   1.267       .  A
C646       C1721   1.444   1_455  S
O647        C936   1.293   1_554  A
O647       Cd654   2.166       .  S
O648        C666   1.266       .  A
O648       Cd657   2.032       .  S
O649        C663   1.270       .  A
O649       Cd653   2.041       .  S
O650        C661   1.267       .  A
O650       Cd653   2.041       .  S
Zn651       O662   1.998       .  S
Zn651       O664   1.933       .  S
Zn651       O656   1.894       .  S
O652        C939   1.269   1_554  A
O652       Cd657   2.016       .  S
Cd653       O655   2.005       .  S
Cd653       O656   1.969       .  S
Cd654       O658   2.176       .  S
Cd654       O667   2.084       .  S
Cd654       O932   2.003   1_554  S
O655        C665   1.265       .  A
O656       Cd930   2.003       .  S
O656       Cd933   1.958       .  S
Cd657       O659   2.026       .  S
Cd657       O932   1.958   1_554  S
O658        C941   1.288   1_554  A
O659        C922   1.267   1_554  A
C660        O923   1.293       .  A
C660        O664   1.265       .  A
C660        C804   1.470       .  S
C661        C689   1.453       .  S
C663        O928   1.269       .  A
C665        O934   1.288       .  A
C665        C850   1.487       .  S
C666        O667   1.272       .  A
C666        C684   1.452       .  S
O668        C684   1.271       .  A
O668       Zn674   2.020       .  S
C669        O685   1.272       .  A
C669        O682   1.267       .  A
C669       C1744   1.444   1_455  S
O670        C683   1.293       .  A
O670       Cd677   2.166       .  S
O671        C689   1.266       .  A
O671       Cd680   2.032       .  S
O672        C686   1.270       .  A
O672       Cd676   2.041       .  S
O673        C684   1.267       .  A
O673       Cd676   2.041       .  S
Zn674       O685   1.999       .  S
Zn674       O687   1.933       .  S
Zn674       O679   1.895       .  S
O675        C686   1.269       .  A
O675       Cd680   2.016       .  S
Cd676       O678   2.005       .  S
Cd676       O679   1.969       .  S
Cd677       O681   2.176       .  S
Cd677       O690   2.084       .  S
Cd677       O679   2.003       .  S
O678        C688   1.265       .  A
O679       Cd680   1.958       .  S
Cd680       O682   2.026       .  S
O681        C688   1.288       .  A
C683        O687   1.265       .  A
C683        C827   1.470       .  S
C689        O690   1.272       .  A
O691        C707   1.272       .  A
O691       Zn697   1.995       .  S
C692        O708   1.271       .  A
C692        O705   1.267       .  A
C692        C734   1.453       .  S
O693        C982   1.292   1_554  A
O693       Cd700   2.165       .  S
O694        C988   1.265       .  A
O694       Cd703   2.005       .  S
O695        C709   1.269   1_554  A
O695       Cd699   2.016       .  S
O696        C983   1.268   1_554  A
O696       Cd699   2.028       .  S
Zn697       O708   2.021       .  S
Zn697       O710   1.931       .  S
Zn697       O702   1.891       .  S
O698        C985   1.271       .  A
O698       Cd703   2.041       .  S
Cd699       O701   2.032       .  S
Cd699       O978   1.957   1_554  S
Cd700       O704   2.086       .  S
Cd700       O713   2.176       .  S
Cd700       O978   2.002   1_554  S
O701        C711   1.266       .  A
O702       Cd975   1.957       .  S
O702       Cd976   2.002       .  S
O702       Cd703   1.968       .  S
Cd703       O705   2.040       .  S
O704        C711   1.272       .  A
C706        O969   1.292       .  A
C706        O710   1.265       .  A
C706        C798   1.469       .  S
C707        O972   1.268       .  A
C707       C1859   1.443   1_455  S
C709        O974   1.271       .  A
C711        C715   1.453       .  S
C712        O970   1.265       .  A
C712        O713   1.288   1_556  A
O714        C730   1.272       .  A
O714       Zn720   1.995       .  S
C715        O731   1.271       .  A
C715        O728   1.267       .  A
O716        C729   1.292       .  A
O716       Cd723   2.166       .  S
O717        C735   1.265       .  A
O717       Cd726   2.005       .  S
O718        C732   1.269       .  A
O718       Cd722   2.016       .  S
O719        C730   1.268       .  A
O719       Cd722   2.027       .  S
Zn720       O731   2.021       .  S
Zn720       O733   1.932       .  S
Zn720       O725   1.891       .  S
O721        C732   1.271       .  A
O721       Cd726   2.042       .  S
Cd722       O724   2.032       .  S
Cd722       O725   1.957       .  S
Cd723       O727   2.086       .  S
Cd723       O736   2.176       .  S
Cd723       O725   2.002       .  S
O724        C734   1.266       .  A
O725       Cd726   1.968       .  S
Cd726       O728   2.040       .  S
O727        C734   1.272       .  A
C729        O733   1.265       .  A
C729        C821   1.469       .  S
C730       C1882   1.443   1_455  S
C735        O736   1.288       .  A
O737        C753   1.271       .  A
O737       Zn743   2.021       .  S
C738       O1030   1.270       .  A
C738        O751   1.268       .  A
O739        C752   1.298       .  A
O739       Cd746   2.202       .  S
O740        C758   1.265       .  A
O740       Cd749   2.021       .  S
O741       C1031   1.272   1_554  A
O741       Cd745   2.054       .  S
O742        C753   1.269       .  A
O742       Cd745   2.054       .  S
Zn743       O754   1.975       .  S
Zn743       O756   1.921       .  S
Zn743      O1024   1.888       .  S
O744        C755   1.266       .  A
O744       Cd749   2.026       .  S
Cd745       O747   1.982       .  S
Cd745      O1024   1.936       .  S
Cd746       O750   2.211       .  S
Cd746       O759   2.108       .  S
Cd746       O748   2.004       .  S
O747       C1033   1.267       .  A
O748      Zn1019   1.888       .  S
O748      Cd1021   1.936       .  S
O748       Cd749   1.957       .  S
Cd749       O751   2.014       .  S
O750        C757   1.298       .  A
C752       O1032   1.264       .  A
C753        C781   1.457       .  S
O754       C1014   1.270       .  A
C755       O1017   1.272       .  A
C755       C1811   1.443       .  S
O756       C1028   1.264       .  A
C757       O1023   1.267       .  A
C757        C799   1.493       .  S
C758        O759   1.276       .  A
C758        C776   1.457       .  S
O760        C776   1.271       .  A
O760       Zn766   2.021       .  S
C761        O777   1.270       .  A
C761        O774   1.268       .  A
O762        C775   1.298       .  A
O762       Cd769   2.202       .  S
O763        C781   1.266       .  A
O763       Cd772   2.021       .  S
O764        C778   1.272       .  A
O764       Cd768   2.054       .  S
O765        C776   1.269       .  A
O765       Cd768   2.054       .  S
Zn766       O777   1.976       .  S
Zn766       O779   1.921       .  S
Zn766       O771   1.888       .  S
O767        C778   1.267       .  A
O767       Cd772   2.027       .  S
Cd768       O770   1.982       .  S
Cd768       O771   1.936       .  S
Cd769       O773   2.210       .  S
Cd769       O782   2.107       .  S
Cd769       O771   2.004       .  S
O770        C780   1.268       .  A
O771       Cd772   1.957       .  S
Cd772       O774   2.013       .  S
O773        C780   1.298       .  A
C775        O779   1.264       .  A
C778       C1834   1.443       .  S
C780        C822   1.492       .  S
C781        O782   1.276       .  A
O783       C1075   1.280       .  A
O783       Zn789   2.020       .  S
C784        O800   1.274       .  A
C784        O797   1.272       .  A
C784        C826   1.470       .  S
O785        C798   1.273       .  A
O785       Cd792   2.090       .  S
O786       C1080   1.278   1_554  A
O786      Cd1899   2.091   1_455  S
O787        C801   1.278       .  A
O787       Cd791   2.139       .  S
O788        C799   1.277       .  A
O788       Cd791   2.137       .  S
Zn789       O800   2.040       .  S
Zn789      O1906   2.045       .  S
Zn789      O1070   1.927   1_554  S
O790       C1077   1.281       .  A
O790       Cd795   2.067       .  S
Cd791       O793   2.100       .  S
Cd791       O794   2.083       .  S
Cd792       O796   2.090       .  S
Cd792       O805   2.094       .  S
Cd792      O1898   2.040   1_455  S
O793       C1907   1.281       .  A
O794      Zn1065   1.927       .  S
O794      Cd1896   2.040       .  S
O794      Cd1071   1.979       .  S
Cd795      O1890   2.091       .  S
Cd795       O797   2.076       .  S
Cd795      O1070   1.979   1_554  S
O796        C803   1.279   1_455  A
C798       O1078   1.278       .  A
C799       O1059   1.280       .  A
C801       O1066   1.281       .  A
O802       C1074   1.278   1_554  A
O802      Zn1893   2.045   1_455  S
C803       O1897   1.281       .  A
C803       C1911   1.470       .  S
C804       O1062   1.278       .  A
C804        O805   1.274       .  A
O806        C822   1.280       .  A
O806       Zn812   2.020       .  S
C807        O823   1.274       .  A
C807        O820   1.272       .  A
C807       C1907   1.470       .  S
O808        C821   1.273       .  A
O808       Cd815   2.089       .  S
O809        C827   1.278       .  A
O809      Cd1922   2.091   1_455  S
O810        C824   1.278       .  A
O810       Cd814   2.139       .  S
O811        C822   1.277       .  A
O811       Cd814   2.137       .  S
Zn812       O823   2.040       .  S
Zn812      O1929   2.045       .  S
Zn812       O817   1.928       .  S
O813        C824   1.281       .  A
O813       Cd818   2.068       .  S
Cd814       O816   2.100       .  S
Cd814       O817   2.083       .  S
Cd815       O819   2.090       .  S
Cd815       O828   2.094       .  S
Cd815      O1921   2.040   1_455  S
O816        C826   1.281       .  A
O817      Cd1919   2.040       .  S
O817       Cd818   1.979       .  S
Cd818      O1913   2.091       .  S
Cd818       O820   2.076       .  S
O819       C1930   1.279   1_455  A
C821        O825   1.278       .  A
O825      Zn1916   2.045   1_455  S
C826       O1923   1.279       .  A
C827        O828   1.274       .  A
O829        C845   1.284       .  A
O829       Zn835   2.084       .  S
C830        O846   1.278       .  A
C830        O843   1.270       .  A
O831       Cd838   2.094       .  S
O833        C847   1.276       .  A
O833       Cd837   2.118       .  S
O834       Cd837   2.092       .  S
Zn835       O846   2.065       .  S
Zn835       O840   1.961       .  S
O836       Cd841   2.084       .  S
Cd837       O839   2.097       .  S
Cd838       O842   2.096       .  S
Cd838       O851   2.119       .  S
O840       Cd841   1.979       .  S
Cd841       O843   2.060       .  S
O842        C849   1.280       .  A
C844        O848   1.284       .  A
C844        C890   1.481   1_556  S
C845       C1028   1.479   1_556  S
C847        C988   1.487       .  S
C850        O851   1.276       .  A
O852        C868   1.284       .  A
C853        O869   1.278       .  A
C853        O866   1.270       .  A
O854        C867   1.274       .  A
O854       Cd861   2.093       .  S
O855        C873   1.280       .  A
O855       Cd864   2.084       .  S
O856        C870   1.276       .  A
O856       Cd860   2.118       .  S
O857        C868   1.274       .  A
O857       Cd860   2.092       .  S
Zn858       O871   2.086       .  S
Zn858       O863   1.961       .  S
O859        C870   1.280       .  A
Cd860       O862   2.097       .  S
Cd861       O865   2.096       .  S
Cd861       O874   2.119       .  S
Cd861       O863   2.054       .  S
O863       Cd864   1.979       .  S
O865        C872   1.280       .  A
C867        O871   1.284       .  A
C867        C913   1.480       .  S
C868       C1051   1.479       .  S
C870       C1011   1.487       .  S
C873        O874   1.276       .  A
C873        C964   1.487       .  S
O875       Zn881   1.974       .  S
C876        O892   1.270       .  A
C876        O889   1.268       .  A
C876        C918   1.457       .  S
O877        C890   1.298   1_556  A
O877       Cd884   2.205       .  S
O878       Cd887   1.975       .  S
O879        C893   1.266       .  A
O879       Cd883   2.029       .  S
O880        C891   1.269   1_556  A
O880       Cd883   2.015       .  S
Zn881       O892   2.021       .  S
Zn881       O894   1.920       .  S
O882       Cd887   2.053       .  S
Cd883       O885   2.021       .  S
Cd883       O886   1.957   1_556  S
Cd884       O888   2.108       .  S
Cd884       O897   2.214       .  S
Cd884       O886   2.005   1_556  S
O885        C895   1.266       .  A
Cd887       O889   2.052       .  S
O888        C895   1.276       .  A
C893       C2026   1.444       .  S
C895        C899   1.457       .  S
C896        O897   1.298   1_554  A
C896       C1077   1.493       .  S
O898        C914   1.270       .  A
O898       Zn904   1.974       .  S
C899        O915   1.270       .  A
C899        O912   1.268       .  A
O900        C913   1.298       .  A
O900       Cd907   2.205       .  S
O901        C919   1.267       .  A
O901       Cd910   1.976       .  S
O902        C916   1.267       .  A
O902       Cd906   2.030       .  S
O903        C914   1.269       .  A
O903       Cd906   2.015       .  S
Zn904       O915   2.021       .  S
Zn904       O917   1.919       .  S
Zn904       O909   1.888       .  S
O905        C916   1.271       .  A
O905       Cd910   2.053       .  S
Cd906       O908   2.021       .  S
Cd906       O909   1.957       .  S
Cd907       O911   2.108       .  S
Cd907       O920   2.214       .  S
Cd907       O909   2.005       .  S
O908        C918   1.266       .  A
O909       Cd910   1.935       .  S
Cd910       O912   2.052       .  S
O911        C918   1.276       .  A
C913        O917   1.263       .  A
C916       C2049   1.444       .  S
C919        O920   1.298       .  A
C919       C1100   1.493       .  S
O921        C937   1.271       .  A
O921       Zn927   2.020       .  S
C922        O938   1.272       .  A
C922       C1997   1.444   1_455  S
O923       Cd930   2.166       .  S
O924        C942   1.266       .  A
O924       Cd933   2.032       .  S
O925        C939   1.270       .  A
O925       Cd929   2.041       .  S
O926        C937   1.267       .  A
O926       Cd929   2.041       .  S
Zn927       O938   1.998       .  S
Zn927       O940   1.933       .  S
Zn927       O932   1.894       .  S
O928       Cd933   2.016       .  S
Cd929       O931   2.005       .  S
Cd929       O932   1.969       .  S
Cd930       O934   2.176       .  S
Cd930       O943   2.084       .  S
O931        C941   1.265       .  A
Cd933       O935   2.026       .  S
C936        O940   1.265       .  A
C936       C1080   1.470       .  S
C937        C965   1.453       .  S
C942        O943   1.272       .  A
C942        C960   1.452       .  S
O944        C960   1.271       .  A
O944       Zn950   2.020       .  S
C945        O961   1.272       .  A
C945        O958   1.267       .  A
C945       C2020   1.444   1_455  S
O946        C959   1.293       .  A
O946       Cd953   2.166       .  S
O947        C965   1.266       .  A
O947       Cd956   2.032       .  S
O948        C962   1.270       .  A
O948       Cd952   2.041       .  S
O949        C960   1.267       .  A
O949       Cd952   2.041       .  S
Zn950       O961   1.999       .  S
Zn950       O963   1.933       .  S
Zn950       O955   1.895       .  S
O951        C962   1.269       .  A
O951       Cd956   2.016       .  S
Cd952       O954   2.005       .  S
Cd952       O955   1.969       .  S
Cd953       O957   2.176       .  S
Cd953       O966   2.084       .  S
Cd953       O955   2.003       .  S
O954        C964   1.265       .  A
O955       Cd956   1.958       .  S
Cd956       O958   2.026       .  S
O957        C964   1.288       .  A
C959        O963   1.265       .  A
C959       C1103   1.470       .  S
C965        O966   1.272       .  A
O967        C983   1.272       .  A
O967       Zn973   1.995       .  S
C968        O984   1.271       .  A
C968        O981   1.267       .  A
C968       C1010   1.453       .  S
O969       Cd976   2.165       .  S
O970       Cd979   2.005       .  S
O971        C985   1.269       .  A
O971       Cd975   2.016       .  S
O972       Cd975   2.028       .  S
Zn973       O984   2.021       .  S
Zn973       O986   1.931       .  S
Zn973       O978   1.891       .  S
O974       Cd979   2.041       .  S
Cd975       O977   2.032       .  S
Cd976       O980   2.086       .  S
Cd976       O989   2.176       .  S
O977        C987   1.266       .  A
O978       Cd979   1.968       .  S
Cd979       O981   2.040       .  S
O980        C987   1.272       .  A
C982        O986   1.265       .  A
C982       C1074   1.469       .  S
C983       C2135   1.443   1_455  S
C987        C991   1.453       .  S
C988        O989   1.288       .  A
O990       C1006   1.272       .  A
O990       Zn996   1.995       .  S
C991       O1007   1.271       .  A
C991       O1004   1.267       .  A
O992       C1005   1.292       .  A
O992       Cd999   2.166       .  S
O993       C1011   1.265       .  A
O993      Cd1002   2.005       .  S
O994       C1008   1.269       .  A
O994       Cd998   2.016       .  S
O995       C1006   1.268       .  A
O995       Cd998   2.027       .  S
Zn996      O1007   2.021       .  S
Zn996      O1009   1.932       .  S
Zn996      O1001   1.891       .  S
O997       C1008   1.271       .  A
O997      Cd1002   2.042       .  S
Cd998      O1000   2.032       .  S
Cd998      O1001   1.957       .  S
Cd999      O1003   2.086       .  S
Cd999      O1012   2.176       .  S
Cd999      O1001   2.002       .  S
O1000      C1010   1.266       .  A
O1001     Cd1002   1.968       .  S
Cd1002     O1004   2.040       .  S
O1003      C1010   1.272       .  A
C1005      O1009   1.265       .  A
C1005      C1097   1.469       .  S
C1006      C2158   1.443   1_455  S
C1011      O1012   1.288       .  A
O1013      C1029   1.271       .  A
O1013     Zn1019   2.021       .  S
C1014      O1027   1.268   1_554  A
O1015      C1028   1.298   1_556  A
O1015     Cd1022   2.202       .  S
O1016      C1034   1.265       .  A
O1016     Cd1025   2.021       .  S
O1017     Cd1021   2.054       .  S
O1018      C1029   1.269       .  A
O1018     Cd1021   2.054       .  S
Zn1019     O1030   1.975       .  S
Zn1019     O1032   1.921       .  S
O1020      C1031   1.266       .  A
O1020     Cd1025   2.026       .  S
Cd1021     O1023   1.982       .  S
Cd1022     O1026   2.211       .  S
Cd1022     O1035   2.108       .  S
Cd1022     O1024   2.004   1_556  S
O1024     Cd1025   1.957   1_554  S
Cd1025     O1027   2.014       .  S
O1026      C1033   1.298   1_556  A
C1029      C1057   1.457       .  S
C1031      C2087   1.443       .  S
C1033      C1075   1.493       .  S
C1034      O1035   1.276       .  A
C1034      C1052   1.457       .  S
O1036      C1052   1.271       .  A
O1036     Zn1042   2.021       .  S
C1037      O1053   1.270       .  A
C1037      O1050   1.268       .  A
O1038      C1051   1.298       .  A
O1038     Cd1045   2.202       .  S
O1039      C1057   1.266       .  A
O1039     Cd1048   2.021       .  S
O1040      C1054   1.272       .  A
O1040     Cd1044   2.054       .  S
O1041      C1052   1.269       .  A
O1041     Cd1044   2.054       .  S
Zn1042     O1053   1.976       .  S
Zn1042     O1055   1.921       .  S
Zn1042     O1047   1.888       .  S
O1043      C1054   1.267       .  A
O1043     Cd1048   2.027       .  S
Cd1044     O1046   1.982       .  S
Cd1044     O1047   1.936       .  S
Cd1045     O1049   2.210       .  S
Cd1045     O1058   2.107       .  S
Cd1045     O1047   2.004       .  S
O1046      C1056   1.268       .  A
O1047     Cd1048   1.957       .  S
Cd1048     O1050   2.013       .  S
O1049      C1056   1.298       .  A
C1051      O1055   1.264       .  A
C1054      C2110   1.443       .  S
C1056      C1098   1.492       .  S
C1057      O1058   1.276       .  A
O1059     Zn1065   2.020       .  S
C1060      O1076   1.274       .  A
C1060      O1073   1.272       .  A
C1060      C1102   1.470       .  S
O1061      C1074   1.273       .  A
O1061     Cd1068   2.090       .  S
O1062     Cd2175   2.091   1_455  S
O1063      C1077   1.278   1_556  A
O1063     Cd1067   2.139       .  S
O1064      C1075   1.277   1_556  A
O1064     Cd1067   2.137       .  S
Zn1065     O1076   2.040       .  S
Zn1065     O2182   2.045       .  S
O1066     Cd1071   2.067       .  S
Cd1067     O1069   2.100       .  S
Cd1067     O1070   2.083       .  S
Cd1068     O1072   2.090       .  S
Cd1068     O1081   2.094       .  S
Cd1068     O2174   2.040   1_455  S
O1069      C2183   1.281       .  A
O1070     Cd2172   2.040       .  S
Cd1071     O2166   2.091       .  S
Cd1071     O1073   2.076       .  S
O1072      C1079   1.279   1_455  A
O1078     Zn2169   2.045   1_455  S
C1079      O2173   1.281       .  A
C1079      C2187   1.470       .  S
C1080      O1081   1.274       .  A
O1082      C1098   1.280       .  A
O1082     Zn1088   2.020       .  S
C1083      O1099   1.274       .  A
C1083      O1096   1.272       .  A
C1083      C2183   1.470       .  S
O1084      C1097   1.273       .  A
O1084     Cd1091   2.089       .  S
O1085      C1103   1.278       .  A
O1085     Cd2198   2.091   1_455  S
O1086      C1100   1.278       .  A
O1086     Cd1090   2.139       .  S
O1087      C1098   1.277       .  A
O1087     Cd1090   2.137       .  S
Zn1088     O1099   2.040       .  S
Zn1088     O2205   2.045       .  S
Zn1088     O1093   1.928       .  S
O1089      C1100   1.281       .  A
O1089     Cd1094   2.068       .  S
Cd1090     O1092   2.100       .  S
Cd1090     O1093   2.083       .  S
Cd1091     O1095   2.090       .  S
Cd1091     O1104   2.094       .  S
Cd1091     O2197   2.040   1_455  S
O1092      C1102   1.281       .  A
O1093     Cd2195   2.040       .  S
O1093     Cd1094   1.979       .  S
Cd1094     O2189   2.091       .  S
Cd1094     O1096   2.076       .  S
O1095      C2206   1.279   1_455  A
C1097      O1101   1.278       .  A
O1101     Zn2192   2.045   1_455  S
C1102      O2199   1.279       .  A
C1103      O1104   1.274       .  A
O1105      C1121   1.284       .  A
O1105     Zn1111   2.084       .  S
C1106      O1122   1.278       .  A
C1106      O1119   1.270       .  A
C1106      C1700   1.471       .  S
O1107      C1396   1.274   1_554  A
O1107     Cd1114   2.094       .  S
O1108      C1402   1.280       .  A
O1108     Cd1669   2.084   1_545  S
O1109      C1123   1.276   1_554  A
O1109     Cd1113   2.118       .  S
O1110      C1397   1.274   1_554  A
O1110     Cd1113   2.092       .  S
Zn1111     O1122   2.065       .  S
Zn1111     O1676   2.085       .  S
Zn1111     O1116   1.961       .  S
O1112      C1399   1.280       .  A
O1112     Cd1117   2.084       .  S
Cd1113     O1115   2.097       .  S
Cd1113     O1392   2.054   1_554  S
Cd1114     O1118   2.096       .  S
Cd1114     O1127   2.119       .  S
Cd1114     O1944   2.054   1_544  S
O1115      C1677   1.280       .  A
O1116     Cd1389   2.054       .  S
O1116     Cd1942   2.054       .  S
O1116     Cd1117   1.979       .  S
Cd1117     O1660   2.084       .  S
Cd1117     O1119   2.060       .  S
O1118      C1125   1.280   1_545  A
C1120      O1383   1.274       .  A
C1120      O1124   1.284       .  A
C1120      C1166   1.481       .  S
C1121      O1386   1.274       .  A
C1121      C1304   1.479       .  S
C1123      O1388   1.280       .  A
C1123      C1264   1.487       .  S
O1124     Zn1663   2.085   1_545  S
C1125      O1667   1.280       .  A
C1125      C1681   1.471       .  S
C1126      O1384   1.280       .  A
C1126      O1127   1.276   1_556  A
C1126      C1493   1.487       .  S
O1128      C1144   1.284       .  A
O1128     Zn1686   2.084       .  S
C1129      O1145   1.278       .  A
C1129      O1142   1.270       .  A
C1129      C1677   1.471       .  S
O1130      C1143   1.274       .  A
O1130     Cd1137   2.093       .  S
O1131      C1149   1.280       .  A
O1131     Cd1140   2.084   1_545  S
O1132      C1146   1.276       .  A
O1132     Cd1136   2.118       .  S
O1133      C1144   1.274       .  A
O1133     Cd1136   2.092       .  S
Zn1134     O1680   2.084       .  S
Zn1134     O1697   2.065       .  S
Zn1134     O1147   2.086   1_565  S
Zn1134     O1139   1.961       .  S
O1135      C1146   1.280       .  A
O1135     Cd1692   2.084       .  S
Cd1136     O1138   2.097       .  S
Cd1136     O1691   2.054       .  S
Cd1137     O1141   2.096       .  S
Cd1137     O1150   2.119       .  S
Cd1137     O1139   2.054   1_545  S
O1138      C1700   1.280       .  A
O1139     Cd1688   2.054       .  S
O1139     Cd1140   1.979       .  S
Cd1140     O1687   2.084       .  S
Cd1140     O1694   2.061       .  S
O1141      C1148   1.280   1_545  A
O1142     Cd1692   2.061       .  S
C1143      O1147   1.284       .  A
C1143      C1189   1.480       .  S
C1144      C1327   1.479       .  S
O1145     Zn1686   2.065       .  S
C1146      C1287   1.487       .  S
C1148      O1690   1.280       .  A
C1148      C1658   1.471       .  S
C1149      O1150   1.276       .  A
C1149      C1240   1.487       .  S
O1151      C1443   1.270       .  A
O1151     Zn1157   1.974       .  S
C1152      O1168   1.270       .  A
C1152      O1165   1.268       .  A
C1152      C1194   1.457       .  S
O1153      C1166   1.298       .  A
O1153     Cd1160   2.205       .  S
O1154      C1448   1.267       .  A
O1154     Cd1163   1.975       .  S
O1155      C1169   1.266       .  A
O1155     Cd1159   2.029       .  S
O1156      C1167   1.269       .  A
O1156     Cd1159   2.015       .  S
Zn1157     O1168   2.021       .  S
Zn1157     O1170   1.920       .  S
Zn1157     O1438   1.888       .  S
O1158      C1445   1.272   1_554  A
O1158     Cd1163   2.053       .  S
Cd1159     O1161   2.021       .  S
Cd1159     O1162   1.957       .  S
Cd1160     O1164   2.108       .  S
Cd1160     O1173   2.214       .  S
Cd1160     O1162   2.005       .  S
O1161      C1171   1.266       .  A
O1162     Zn1433   1.888       .  S
O1162     Cd1439   1.935       .  S
Cd1163     O1165   2.052       .  S
Cd1163     O1438   1.935       .  S
O1164      C1171   1.276       .  A
C1166      O1446   1.264       .  A
C1167      O1427   1.270       .  A
C1167      C1842   1.439   1_545  S
C1169      O1434   1.272       .  A
O1170      C1442   1.264       .  A
C1171      C1175   1.457       .  S
C1172      O1430   1.267       .  A
C1172      O1173   1.298       .  A
C1172      C1353   1.493       .  S
O1174      C1190   1.270       .  A
O1174     Zn1180   1.974       .  S
C1175      O1191   1.270       .  A
C1175      O1188   1.268       .  A
O1176      C1189   1.298       .  A
O1176     Cd1183   2.205       .  S
O1177      C1195   1.267       .  A
O1177     Cd1186   1.976       .  S
O1178      C1192   1.267       .  A
O1178     Cd1182   2.030       .  S
O1179      C1190   1.269       .  A
O1179     Cd1182   2.015       .  S
Zn1180     O1191   2.021       .  S
Zn1180     O1193   1.919       .  S
Zn1180     O1185   1.888       .  S
O1181      C1192   1.271       .  A
O1181     Cd1186   2.053       .  S
Cd1182     O1184   2.021       .  S
Cd1182     O1185   1.957       .  S
Cd1183     O1187   2.108       .  S
Cd1183     O1196   2.214       .  S
Cd1183     O1185   2.005       .  S
O1184      C1194   1.266       .  A
O1185     Cd1186   1.935       .  S
Cd1186     O1188   2.052       .  S
O1187      C1194   1.276       .  A
C1189      O1193   1.263       .  A
C1190      C1865   1.439   1_545  S
C1195      O1196   1.298       .  A
C1195      C1376   1.493       .  S
O1197      C1213   1.271       .  A
O1197     Zn1203   2.020       .  S
C1198      O1214   1.272       .  A
C1198      O1487   1.267       .  A
O1199      C1488   1.293   1_554  A
O1199     Cd1206   2.166       .  S
O1200      C1218   1.266       .  A
O1200     Cd1209   2.032       .  S
O1201      C1215   1.270       .  A
O1201     Cd1205   2.041       .  S
O1202      C1213   1.267       .  A
O1202     Cd1205   2.041       .  S
Zn1203     O1214   1.998       .  S
Zn1203     O1216   1.933       .  S
Zn1203     O1208   1.894       .  S
O1204      C1491   1.269   1_554  A
O1204     Cd1209   2.016       .  S
Cd1205     O1207   2.005       .  S
Cd1205     O1208   1.969       .  S
Cd1206     O1210   2.176       .  S
Cd1206     O1219   2.084       .  S
Cd1206     O1484   2.003   1_554  S
O1207      C1217   1.265       .  A
O1208     Cd1482   2.003       .  S
O1208     Cd1485   1.958       .  S
Cd1209     O1211   2.026       .  S
Cd1209     O1484   1.958   1_554  S
O1210      C1493   1.288   1_554  A
O1211      C1474   1.267   1_554  A
C1212      O1475   1.293       .  A
C1212      O1216   1.265       .  A
C1212      C1356   1.470       .  S
C1213      C1241   1.453       .  S
C1215      O1480   1.269       .  A
C1215      C2089   1.443   1_545  S
C1217      O1486   1.288       .  A
C1217      C1402   1.487       .  S
C1218      O1219   1.272       .  A
C1218      C1236   1.452       .  S
O1220      C1236   1.271       .  A
O1220     Zn1226   2.020       .  S
C1221      O1237   1.272       .  A
C1221      O1234   1.267       .  A
O1222      C1235   1.293       .  A
O1222     Cd1229   2.166       .  S
O1223      C1241   1.266       .  A
O1223     Cd1232   2.032       .  S
O1224      C1238   1.270       .  A
O1224     Cd1228   2.041       .  S
O1225      C1236   1.267       .  A
O1225     Cd1228   2.041       .  S
Zn1226     O1237   1.999       .  S
Zn1226     O1239   1.933       .  S
Zn1226     O1231   1.895       .  S
O1227      C1238   1.269       .  A
O1227     Cd1232   2.016       .  S
Cd1228     O1230   2.005       .  S
Cd1228     O1231   1.969       .  S
Cd1229     O1233   2.176       .  S
Cd1229     O1242   2.084       .  S
Cd1229     O1231   2.003       .  S
O1230      C1240   1.265       .  A
O1231     Cd1232   1.958       .  S
Cd1232     O1234   2.026       .  S
O1233      C1240   1.288       .  A
C1235      O1239   1.265       .  A
C1235      C1379   1.470       .  S
C1238      C1836   1.443   1_545  S
C1241      O1242   1.272       .  A
O1243      C1259   1.272       .  A
O1243     Zn1249   1.995       .  S
C1244      O1260   1.271       .  A
C1244      O1257   1.267       .  A
C1244      C1286   1.453       .  S
O1245      C1534   1.292   1_554  A
O1245     Cd1252   2.165       .  S
O1246      C1540   1.265       .  A
O1246     Cd1255   2.005       .  S
O1247      C1261   1.269   1_554  A
O1247     Cd1251   2.016       .  S
O1248      C1535   1.268   1_554  A
O1248     Cd1251   2.028       .  S
Zn1249     O1260   2.021       .  S
Zn1249     O1262   1.931       .  S
Zn1249     O1254   1.891       .  S
O1250      C1537   1.271       .  A
O1250     Cd1255   2.041       .  S
Cd1251     O1253   2.032       .  S
Cd1251     O1530   1.957   1_554  S
Cd1252     O1256   2.086       .  S
Cd1252     O1265   2.176       .  S
Cd1252     O1530   2.002   1_554  S
O1253      C1263   1.266       .  A
O1254     Cd1527   1.957       .  S
O1254     Cd1528   2.002       .  S
O1254     Cd1255   1.968       .  S
Cd1255     O1257   2.040       .  S
O1256      C1263   1.272       .  A
C1258      O1521   1.292       .  A
C1258      O1262   1.265       .  A
C1258      C1350   1.469       .  S
C1259      O1524   1.268       .  A
C1261      O1526   1.271       .  A
C1261      C2043   1.443       .  S
C1263      C1267   1.453       .  S
C1264      O1522   1.265       .  A
C1264      O1265   1.288   1_556  A
O1266      C1282   1.272       .  A
O1266     Zn1272   1.995       .  S
C1267      O1283   1.271       .  A
C1267      O1280   1.267       .  A
O1268      C1281   1.292       .  A
O1268     Cd1275   2.166       .  S
O1269      C1287   1.265       .  A
O1269     Cd1278   2.005       .  S
O1270      C1284   1.269       .  A
O1270     Cd1274   2.016       .  S
O1271      C1282   1.268       .  A
O1271     Cd1274   2.027       .  S
Zn1272     O1283   2.021       .  S
Zn1272     O1285   1.932       .  S
Zn1272     O1277   1.891       .  S
O1273      C1284   1.271       .  A
O1273     Cd1278   2.042       .  S
Cd1274     O1276   2.032       .  S
Cd1274     O1277   1.957       .  S
Cd1275     O1279   2.086       .  S
Cd1275     O1288   2.176       .  S
Cd1275     O1277   2.002       .  S
O1276      C1286   1.266       .  A
O1277     Cd1278   1.968       .  S
Cd1278     O1280   2.040       .  S
O1279      C1286   1.272       .  A
C1281      O1285   1.265       .  A
C1281      C1373   1.469       .  S
C1284      C1790   1.443       .  S
C1287      O1288   1.288       .  A
O1289      C1305   1.271       .  A
O1289     Zn1295   2.021       .  S
C1290      O1582   1.270       .  A
C1290      O1303   1.268       .  A
C1290      C1719   1.439       .  S
O1291      C1304   1.298       .  A
O1291     Cd1298   2.202       .  S
O1292      C1310   1.265       .  A
O1292     Cd1301   2.021       .  S
O1293      C1583   1.272   1_554  A
O1293     Cd1297   2.054       .  S
O1294      C1305   1.269       .  A
O1294     Cd1297   2.054       .  S
Zn1295     O1306   1.975       .  S
Zn1295     O1308   1.921       .  S
Zn1295     O1576   1.888       .  S
O1296      C1307   1.266       .  A
O1296     Cd1301   2.026       .  S
Cd1297     O1299   1.982       .  S
Cd1297     O1576   1.936       .  S
Cd1298     O1302   2.211       .  S
Cd1298     O1311   2.108       .  S
Cd1298     O1300   2.004       .  S
O1299      C1585   1.267       .  A
O1300     Zn1571   1.888       .  S
O1300     Cd1573   1.936       .  S
O1300     Cd1301   1.957       .  S
Cd1301     O1303   2.014       .  S
O1302      C1309   1.298       .  A
C1304      O1584   1.264       .  A
C1305      C1333   1.457       .  S
O1306      C1566   1.270       .  A
C1307      O1569   1.272       .  A
O1308      C1580   1.264       .  A
C1309      O1575   1.267       .  A
C1309      C1351   1.493       .  S
C1310      O1311   1.276       .  A
C1310      C1328   1.457       .  S
O1312      C1328   1.271       .  A
O1312     Zn1318   2.021       .  S
C1313      O1329   1.270       .  A
C1313      O1326   1.268       .  A
C1313      C1742   1.439       .  S
O1314      C1327   1.298       .  A
O1314     Cd1321   2.202       .  S
O1315      C1333   1.266       .  A
O1315     Cd1324   2.021       .  S
O1316      C1330   1.272       .  A
O1316     Cd1320   2.054       .  S
O1317      C1328   1.269       .  A
O1317     Cd1320   2.054       .  S
Zn1318     O1329   1.976       .  S
Zn1318     O1331   1.921       .  S
Zn1318     O1323   1.888       .  S
O1319      C1330   1.267       .  A
O1319     Cd1324   2.027       .  S
Cd1320     O1322   1.982       .  S
Cd1320     O1323   1.936       .  S
Cd1321     O1325   2.210       .  S
Cd1321     O1334   2.107       .  S
Cd1321     O1323   2.004       .  S
O1322      C1332   1.268       .  A
O1323     Cd1324   1.957       .  S
Cd1324     O1326   2.013       .  S
O1325      C1332   1.298       .  A
C1327      O1331   1.264       .  A
C1332      C1374   1.492       .  S
C1333      O1334   1.276       .  A
O1335      C1627   1.280       .  A
O1335     Zn1341   2.020       .  S
C1336      O1352   1.274       .  A
C1336      O1349   1.272       .  A
C1336      C1378   1.470       .  S
O1337      C1350   1.273       .  A
O1337     Cd1344   2.090       .  S
O1338      C1632   1.278   1_554  A
O1339      C1353   1.278       .  A
O1339     Cd1343   2.139       .  S
O1340      C1351   1.277       .  A
O1340     Cd1343   2.137       .  S
Zn1341     O1352   2.040       .  S
Zn1341     O1622   1.927   1_554  S
O1342      C1629   1.281       .  A
O1342     Cd1347   2.067       .  S
Cd1343     O1345   2.100       .  S
Cd1343     O1346   2.083       .  S
Cd1344     O1348   2.090       .  S
Cd1344     O1357   2.094       .  S
O1346     Zn1617   1.927       .  S
O1346     Cd1623   1.979       .  S
Cd1347     O1349   2.076       .  S
Cd1347     O1622   1.979   1_554  S
O1348      C1355   1.279       .  A
C1350      O1630   1.278       .  A
C1351      O1611   1.280       .  A
C1353      O1618   1.281       .  A
O1354      C1626   1.278   1_554  A
C1356      O1614   1.278       .  A
C1356      O1357   1.274       .  A
O1358      C1374   1.280       .  A
O1358     Zn1364   2.020       .  S
C1359      O1375   1.274       .  A
C1359      O1372   1.272       .  A
O1360      C1373   1.273       .  A
O1360     Cd1367   2.089       .  S
O1361      C1379   1.278       .  A
O1362      C1376   1.278       .  A
O1362     Cd1366   2.139       .  S
O1363      C1374   1.277       .  A
O1363     Cd1366   2.137       .  S
Zn1364     O1375   2.040       .  S
Zn1364     O1369   1.928       .  S
O1365      C1376   1.281       .  A
O1365     Cd1370   2.068       .  S
Cd1366     O1368   2.100       .  S
Cd1366     O1369   2.083       .  S
Cd1367     O1371   2.090       .  S
Cd1367     O1380   2.094       .  S
O1368      C1378   1.281       .  A
O1369     Cd1370   1.979       .  S
Cd1370     O1372   2.076       .  S
C1373      O1377   1.278       .  A
C1379      O1380   1.274       .  A
O1381      C1397   1.284       .  A
O1381     Zn1387   2.084       .  S
C1382      O1398   1.278       .  A
C1382      O1395   1.270       .  A
C1382      C1976   1.471       .  S
O1383     Cd1390   2.094       .  S
O1384     Cd1945   2.084   1_545  S
O1385      C1399   1.276       .  A
O1385     Cd1389   2.118       .  S
O1386     Cd1389   2.092       .  S
Zn1387     O1398   2.065       .  S
Zn1387     O1952   2.085       .  S
Zn1387     O1392   1.961       .  S
O1388     Cd1393   2.084       .  S
Cd1389     O1391   2.097       .  S
Cd1390     O1394   2.096       .  S
Cd1390     O1403   2.119       .  S
Cd1390     O1668   2.054   1_545  S
O1391      C1953   1.280       .  A
O1392     Cd1666   2.054   1_556  S
O1392     Cd1393   1.979       .  S
Cd1393     O1936   2.084       .  S
Cd1393     O1395   2.060       .  S
O1394      C1401   1.280   1_545  A
C1396      O1400   1.284       .  A
C1396      C1442   1.481   1_556  S
C1397      C1580   1.479   1_556  S
C1399      C1540   1.487       .  S
O1400     Zn1939   2.085   1_545  S
C1401      O1943   1.280       .  A
C1401      C1957   1.471       .  S
C1402      O1403   1.276       .  A
O1404      C1420   1.284       .  A
O1404     Zn1962   2.084       .  S
C1405      O1421   1.278       .  A
C1405      O1418   1.270       .  A
C1405      C1953   1.471       .  S
O1406      C1419   1.274       .  A
O1406     Cd1413   2.093       .  S
O1407      C1425   1.280       .  A
O1407     Cd1416   2.084   1_545  S
O1408      C1422   1.276       .  A
O1408     Cd1412   2.118       .  S
O1409      C1420   1.274       .  A
O1409     Cd1412   2.092       .  S
Zn1410     O1956   2.084       .  S
Zn1410     O1973   2.065       .  S
Zn1410     O1423   2.086   1_565  S
Zn1410     O1415   1.961       .  S
O1411      C1422   1.280       .  A
O1411     Cd1968   2.084       .  S
Cd1412     O1414   2.097       .  S
Cd1412     O1967   2.054       .  S
Cd1413     O1417   2.096       .  S
Cd1413     O1426   2.119       .  S
Cd1413     O1415   2.054   1_545  S
O1414      C1976   1.280       .  A
O1415     Cd1964   2.054       .  S
O1415     Cd1416   1.979       .  S
Cd1416     O1963   2.084       .  S
Cd1416     O1970   2.061       .  S
O1417      C1424   1.280   1_545  A
O1418     Cd1968   2.061       .  S
C1419      O1423   1.284       .  A
C1419      C1465   1.480       .  S
C1420      C1603   1.479       .  S
O1421     Zn1962   2.065       .  S
C1422      C1563   1.487       .  S
C1424      O1966   1.280       .  A
C1424      C1934   1.471       .  S
C1425      O1426   1.276       .  A
C1425      C1516   1.487       .  S
O1427     Zn1433   1.974       .  S
C1428      O1444   1.270       .  A
C1428      O1441   1.268       .  A
C1428      C1470   1.457       .  S
O1429      C1442   1.298   1_556  A
O1429     Cd1436   2.205       .  S
O1430     Cd1439   1.975       .  S
O1431      C1445   1.266       .  A
O1431     Cd1435   2.029       .  S
O1432      C1443   1.269   1_556  A
O1432     Cd1435   2.015       .  S
Zn1433     O1444   2.021       .  S
Zn1433     O1446   1.920       .  S
O1434     Cd1439   2.053       .  S
Cd1435     O1437   2.021       .  S
Cd1435     O1438   1.957   1_556  S
Cd1436     O1440   2.108       .  S
Cd1436     O1449   2.214       .  S
Cd1436     O1438   2.005   1_556  S
O1437      C1447   1.266       .  A
Cd1439     O1441   2.052       .  S
O1440      C1447   1.276       .  A
C1443      C2118   1.439   1_545  S
C1447      C1451   1.457       .  S
C1448      O1449   1.298   1_554  A
C1448      C1629   1.493       .  S
O1450      C1466   1.270       .  A
O1450     Zn1456   1.974       .  S
C1451      O1467   1.270       .  A
C1451      O1464   1.268       .  A
O1452      C1465   1.298       .  A
O1452     Cd1459   2.205       .  S
O1453      C1471   1.267       .  A
O1453     Cd1462   1.976       .  S
O1454      C1468   1.267       .  A
O1454     Cd1458   2.030       .  S
O1455      C1466   1.269       .  A
O1455     Cd1458   2.015       .  S
Zn1456     O1467   2.021       .  S
Zn1456     O1469   1.919       .  S
Zn1456     O1461   1.888       .  S
O1457      C1468   1.271       .  A
O1457     Cd1462   2.053       .  S
Cd1458     O1460   2.021       .  S
Cd1458     O1461   1.957       .  S
Cd1459     O1463   2.108       .  S
Cd1459     O1472   2.214       .  S
Cd1459     O1461   2.005       .  S
O1460      C1470   1.266       .  A
O1461     Cd1462   1.935       .  S
Cd1462     O1464   2.052       .  S
O1463      C1470   1.276       .  A
C1465      O1469   1.263       .  A
C1466      C2141   1.439   1_545  S
C1471      O1472   1.298       .  A
C1471      C1652   1.493       .  S
O1473      C1489   1.271       .  A
O1473     Zn1479   2.020       .  S
C1474      O1490   1.272       .  A
O1475     Cd1482   2.166       .  S
O1476      C1494   1.266       .  A
O1476     Cd1485   2.032       .  S
O1477      C1491   1.270       .  A
O1477     Cd1481   2.041       .  S
O1478      C1489   1.267       .  A
O1478     Cd1481   2.041       .  S
Zn1479     O1490   1.998       .  S
Zn1479     O1492   1.933       .  S
Zn1479     O1484   1.894       .  S
O1480     Cd1485   2.016       .  S
Cd1481     O1483   2.005       .  S
Cd1481     O1484   1.969       .  S
Cd1482     O1486   2.176       .  S
Cd1482     O1495   2.084       .  S
O1483      C1493   1.265       .  A
Cd1485     O1487   2.026       .  S
C1488      O1492   1.265       .  A
C1488      C1632   1.470       .  S
C1489      C1517   1.453       .  S
C1491      C1813   1.443   1_545  S
C1494      O1495   1.272       .  A
C1494      C1512   1.452       .  S
O1496      C1512   1.271       .  A
O1496     Zn1502   2.020       .  S
C1497      O1513   1.272       .  A
C1497      O1510   1.267       .  A
O1498      C1511   1.293       .  A
O1498     Cd1505   2.166       .  S
O1499      C1517   1.266       .  A
O1499     Cd1508   2.032       .  S
O1500      C1514   1.270       .  A
O1500     Cd1504   2.041       .  S
O1501      C1512   1.267       .  A
O1501     Cd1504   2.041       .  S
Zn1502     O1513   1.999       .  S
Zn1502     O1515   1.933       .  S
Zn1502     O1507   1.895       .  S
O1503      C1514   1.269       .  A
O1503     Cd1508   2.016       .  S
Cd1504     O1506   2.005       .  S
Cd1504     O1507   1.969       .  S
Cd1505     O1509   2.176       .  S
Cd1505     O1518   2.084       .  S
Cd1505     O1507   2.003       .  S
O1506      C1516   1.265       .  A
O1507     Cd1508   1.958       .  S
Cd1508     O1510   2.026       .  S
O1509      C1516   1.288       .  A
C1511      O1515   1.265       .  A
C1511      C1655   1.470       .  S
C1514      C2112   1.443   1_545  S
C1517      O1518   1.272       .  A
O1519      C1535   1.272       .  A
O1519     Zn1525   1.995       .  S
C1520      O1536   1.271       .  A
C1520      O1533   1.267       .  A
C1520      C1562   1.453       .  S
O1521     Cd1528   2.165       .  S
O1522     Cd1531   2.005       .  S
O1523      C1537   1.269       .  A
O1523     Cd1527   2.016       .  S
O1524     Cd1527   2.028       .  S
Zn1525     O1536   2.021       .  S
Zn1525     O1538   1.931       .  S
Zn1525     O1530   1.891       .  S
O1526     Cd1531   2.041       .  S
Cd1527     O1529   2.032       .  S
Cd1528     O1532   2.086       .  S
Cd1528     O1541   2.176       .  S
O1529      C1539   1.266       .  A
O1530     Cd1531   1.968       .  S
Cd1531     O1533   2.040       .  S
O1532      C1539   1.272       .  A
C1534      O1538   1.265       .  A
C1534      C1626   1.469       .  S
C1537      C1767   1.443       .  S
C1539      C1543   1.453       .  S
C1540      O1541   1.288       .  A
O1542      C1558   1.272       .  A
O1542     Zn1548   1.995       .  S
C1543      O1559   1.271       .  A
C1543      O1556   1.267       .  A
O1544      C1557   1.292       .  A
O1544     Cd1551   2.166       .  S
O1545      C1563   1.265       .  A
O1545     Cd1554   2.005       .  S
O1546      C1560   1.269       .  A
O1546     Cd1550   2.016       .  S
O1547      C1558   1.268       .  A
O1547     Cd1550   2.027       .  S
Zn1548     O1559   2.021       .  S
Zn1548     O1561   1.932       .  S
Zn1548     O1553   1.891       .  S
O1549      C1560   1.271       .  A
O1549     Cd1554   2.042       .  S
Cd1550     O1552   2.032       .  S
Cd1550     O1553   1.957       .  S
Cd1551     O1555   2.086       .  S
Cd1551     O1564   2.176       .  S
Cd1551     O1553   2.002       .  S
O1552      C1562   1.266       .  A
O1553     Cd1554   1.968       .  S
Cd1554     O1556   2.040       .  S
O1555      C1562   1.272       .  A
C1557      O1561   1.265       .  A
C1557      C1649   1.469       .  S
C1560      C2066   1.443       .  S
C1563      O1564   1.288       .  A
O1565      C1581   1.271       .  A
O1565     Zn1571   2.021       .  S
C1566      O1579   1.268   1_554  A
C1566      C1995   1.439       .  S
O1567      C1580   1.298   1_556  A
O1567     Cd1574   2.202       .  S
O1568      C1586   1.265       .  A
O1568     Cd1577   2.021       .  S
O1569     Cd1573   2.054       .  S
O1570      C1581   1.269       .  A
O1570     Cd1573   2.054       .  S
Zn1571     O1582   1.975       .  S
Zn1571     O1584   1.921       .  S
O1572      C1583   1.266       .  A
O1572     Cd1577   2.026       .  S
Cd1573     O1575   1.982       .  S
Cd1574     O1578   2.211       .  S
Cd1574     O1587   2.108       .  S
Cd1574     O1576   2.004   1_556  S
O1576     Cd1577   1.957   1_554  S
Cd1577     O1579   2.014       .  S
O1578      C1585   1.298   1_556  A
C1581      C1609   1.457       .  S
C1585      C1627   1.493       .  S
C1586      O1587   1.276       .  A
C1586      C1604   1.457       .  S
O1588      C1604   1.271       .  A
O1588     Zn1594   2.021       .  S
C1589      O1605   1.270       .  A
C1589      O1602   1.268       .  A
C1589      C2018   1.439       .  S
O1590      C1603   1.298       .  A
O1590     Cd1597   2.202       .  S
O1591      C1609   1.266       .  A
O1591     Cd1600   2.021       .  S
O1592      C1606   1.272       .  A
O1592     Cd1596   2.054       .  S
O1593      C1604   1.269       .  A
O1593     Cd1596   2.054       .  S
Zn1594     O1605   1.976       .  S
Zn1594     O1607   1.921       .  S
Zn1594     O1599   1.888       .  S
O1595      C1606   1.267       .  A
O1595     Cd1600   2.027       .  S
Cd1596     O1598   1.982       .  S
Cd1596     O1599   1.936       .  S
Cd1597     O1601   2.210       .  S
Cd1597     O1610   2.107       .  S
Cd1597     O1599   2.004       .  S
O1598      C1608   1.268       .  A
O1599     Cd1600   1.957       .  S
Cd1600     O1602   2.013       .  S
O1601      C1608   1.298       .  A
C1603      O1607   1.264       .  A
C1608      C1650   1.492       .  S
C1609      O1610   1.276       .  A
O1611     Zn1617   2.020       .  S
C1612      O1628   1.274       .  A
C1612      O1625   1.272       .  A
C1612      C1654   1.470       .  S
O1613      C1626   1.273       .  A
O1613     Cd1620   2.090       .  S
O1615      C1629   1.278   1_556  A
O1615     Cd1619   2.139       .  S
O1616      C1627   1.277   1_556  A
O1616     Cd1619   2.137       .  S
Zn1617     O1628   2.040       .  S
O1618     Cd1623   2.067       .  S
Cd1619     O1621   2.100       .  S
Cd1619     O1622   2.083       .  S
Cd1620     O1624   2.090       .  S
Cd1620     O1633   2.094       .  S
Cd1623     O1625   2.076       .  S
O1624      C1631   1.279       .  A
C1632      O1633   1.274       .  A
O1634      C1650   1.280       .  A
O1634     Zn1640   2.020       .  S
C1635      O1651   1.274       .  A
C1635      O1648   1.272       .  A
O1636      C1649   1.273       .  A
O1636     Cd1643   2.089       .  S
O1637      C1655   1.278       .  A
O1638      C1652   1.278       .  A
O1638     Cd1642   2.139       .  S
O1639      C1650   1.277       .  A
O1639     Cd1642   2.137       .  S
Zn1640     O1651   2.040       .  S
Zn1640     O1645   1.928       .  S
O1641      C1652   1.281       .  A
O1641     Cd1646   2.068       .  S
Cd1642     O1644   2.100       .  S
Cd1642     O1645   2.083       .  S
Cd1643     O1647   2.090       .  S
Cd1643     O1656   2.094       .  S
O1644      C1654   1.281       .  A
O1645     Cd1646   1.979       .  S
Cd1646     O1648   2.076       .  S
C1649      O1653   1.278       .  A
C1655      O1656   1.274       .  A
O1657      C1673   1.284       .  A
O1657     Zn1663   2.084       .  S
C1658      O1674   1.278       .  A
C1658      O1671   1.270       .  A
O1659      C1948   1.274   1_554  A
O1659     Cd1666   2.094       .  S
O1660      C1954   1.280       .  A
O1661      C1675   1.276   1_554  A
O1661     Cd1665   2.118       .  S
O1662      C1949   1.274   1_554  A
O1662     Cd1665   2.092       .  S
Zn1663     O1674   2.065       .  S
Zn1663     O1668   1.961       .  S
O1664      C1951   1.280       .  A
O1664     Cd1669   2.084       .  S
Cd1665     O1667   2.097       .  S
Cd1665     O1944   2.054   1_554  S
Cd1666     O1670   2.096       .  S
Cd1666     O1679   2.119       .  S
O1668     Cd1941   2.054       .  S
O1668     Cd1669   1.979       .  S
Cd1669     O1671   2.060       .  S
O1670      C1677   1.280       .  A
C1672      O1935   1.274       .  A
C1672      O1676   1.284       .  A
C1672      C1718   1.481       .  S
C1673      O1938   1.274       .  A
C1673      C1856   1.479       .  S
C1675      O1940   1.280       .  A
C1675      C1816   1.487       .  S
C1678      O1936   1.280       .  A
C1678      O1679   1.276   1_556  A
C1678      C2045   1.487       .  S
O1680      C1696   1.284       .  A
C1681      O1697   1.278       .  A
C1681      O1694   1.270       .  A
O1682      C1695   1.274       .  A
O1682     Cd1689   2.093       .  S
O1683      C1701   1.280       .  A
O1683     Cd1692   2.084       .  S
O1684      C1698   1.276       .  A
O1684     Cd1688   2.118       .  S
O1685      C1696   1.274       .  A
O1685     Cd1688   2.092       .  S
Zn1686     O1699   2.086       .  S
Zn1686     O1691   1.961       .  S
O1687      C1698   1.280       .  A
Cd1688     O1690   2.097       .  S
Cd1689     O1693   2.096       .  S
Cd1689     O1702   2.119       .  S
Cd1689     O1691   2.054       .  S
O1691     Cd1692   1.979       .  S
O1693      C1700   1.280       .  A
C1695      O1699   1.284       .  A
C1695      C1741   1.480       .  S
C1696      C1879   1.479       .  S
C1698      C1839   1.487       .  S
C1701      O1702   1.276       .  A
C1701      C1792   1.487       .  S
O1703      C1995   1.270       .  A
O1703     Zn1709   1.974       .  S
C1704      O1720   1.270       .  A
C1704      O1717   1.268       .  A
C1704      C1746   1.457       .  S
O1705      C1718   1.298       .  A
O1705     Cd1712   2.205       .  S
O1706      C2000   1.267       .  A
O1706     Cd1715   1.975       .  S
O1707      C1721   1.266       .  A
O1707     Cd1711   2.029       .  S
O1708      C1719   1.269       .  A
O1708     Cd1711   2.015       .  S
Zn1709     O1720   2.021       .  S
Zn1709     O1722   1.920       .  S
Zn1709     O1990   1.888       .  S
O1710      C1997   1.272   1_554  A
O1710     Cd1715   2.053       .  S
Cd1711     O1713   2.021       .  S
Cd1711     O1714   1.957       .  S
Cd1712     O1716   2.108       .  S
Cd1712     O1725   2.214       .  S
Cd1712     O1714   2.005       .  S
O1713      C1723   1.266       .  A
O1714     Zn1985   1.888       .  S
O1714     Cd1991   1.935       .  S
Cd1715     O1717   2.052       .  S
Cd1715     O1990   1.935       .  S
O1716      C1723   1.276       .  A
C1718      O1998   1.264       .  A
C1719      O1979   1.270       .  A
C1721      O1986   1.272       .  A
O1722      C1994   1.264       .  A
C1723      C1727   1.457       .  S
C1724      O1982   1.267       .  A
C1724      O1725   1.298       .  A
C1724      C1905   1.493       .  S
O1726      C1742   1.270       .  A
O1726     Zn1732   1.974       .  S
C1727      O1743   1.270       .  A
C1727      O1740   1.268       .  A
O1728      C1741   1.298       .  A
O1728     Cd1735   2.205       .  S
O1729      C1747   1.267       .  A
O1729     Cd1738   1.976       .  S
O1730      C1744   1.267       .  A
O1730     Cd1734   2.030       .  S
O1731      C1742   1.269       .  A
O1731     Cd1734   2.015       .  S
Zn1732     O1743   2.021       .  S
Zn1732     O1745   1.919       .  S
Zn1732     O1737   1.888       .  S
O1733      C1744   1.271       .  A
O1733     Cd1738   2.053       .  S
Cd1734     O1736   2.021       .  S
Cd1734     O1737   1.957       .  S
Cd1735     O1739   2.108       .  S
Cd1735     O1748   2.214       .  S
Cd1735     O1737   2.005       .  S
O1736      C1746   1.266       .  A
O1737     Cd1738   1.935       .  S
Cd1738     O1740   2.052       .  S
O1739      C1746   1.276       .  A
C1741      O1745   1.263       .  A
C1747      O1748   1.298       .  A
C1747      C1928   1.493       .  S
O1749      C1765   1.271       .  A
O1749     Zn1755   2.020       .  S
C1750      O1766   1.272       .  A
C1750      O2039   1.267       .  A
O1751      C2040   1.293   1_554  A
O1751     Cd1758   2.166       .  S
O1752      C1770   1.266       .  A
O1752     Cd1761   2.032       .  S
O1753      C1767   1.270       .  A
O1753     Cd1757   2.041       .  S
O1754      C1765   1.267       .  A
O1754     Cd1757   2.041       .  S
Zn1755     O1766   1.998       .  S
Zn1755     O1768   1.933       .  S
Zn1755     O1760   1.894       .  S
O1756      C2043   1.269   1_554  A
O1756     Cd1761   2.016       .  S
Cd1757     O1759   2.005       .  S
Cd1757     O1760   1.969       .  S
Cd1758     O1762   2.176       .  S
Cd1758     O1771   2.084       .  S
Cd1758     O2036   2.003   1_554  S
O1759      C1769   1.265       .  A
O1760     Cd2034   2.003       .  S
O1760     Cd2037   1.958       .  S
Cd1761     O1763   2.026       .  S
Cd1761     O2036   1.958   1_554  S
O1762      C2045   1.288   1_554  A
O1763      C2026   1.267   1_554  A
C1764      O2027   1.293       .  A
C1764      O1768   1.265       .  A
C1764      C1908   1.470       .  S
C1765      C1793   1.453       .  S
C1767      O2032   1.269       .  A
C1769      O2038   1.288       .  A
C1769      C1954   1.487       .  S
C1770      O1771   1.272       .  A
C1770      C1788   1.452       .  S
O1772      C1788   1.271       .  A
O1772     Zn1778   2.020       .  S
C1773      O1789   1.272       .  A
C1773      O1786   1.267       .  A
O1774      C1787   1.293       .  A
O1774     Cd1781   2.166       .  S
O1775      C1793   1.266       .  A
O1775     Cd1784   2.032       .  S
O1776      C1790   1.270       .  A
O1776     Cd1780   2.041       .  S
O1777      C1788   1.267       .  A
O1777     Cd1780   2.041       .  S
Zn1778     O1789   1.999       .  S
Zn1778     O1791   1.933       .  S
Zn1778     O1783   1.895       .  S
O1779      C1790   1.269       .  A
O1779     Cd1784   2.016       .  S
Cd1780     O1782   2.005       .  S
Cd1780     O1783   1.969       .  S
Cd1781     O1785   2.176       .  S
Cd1781     O1794   2.084       .  S
Cd1781     O1783   2.003       .  S
O1782      C1792   1.265       .  A
O1783     Cd1784   1.958       .  S
Cd1784     O1786   2.026       .  S
O1785      C1792   1.288       .  A
C1787      O1791   1.265       .  A
C1787      C1931   1.470       .  S
C1793      O1794   1.272       .  A
O1795      C1811   1.272       .  A
O1795     Zn1801   1.995       .  S
C1796      O1812   1.271       .  A
C1796      O1809   1.267       .  A
C1796      C1838   1.453       .  S
O1797      C2086   1.292   1_554  A
O1797     Cd1804   2.165       .  S
O1798      C2092   1.265       .  A
O1798     Cd1807   2.005       .  S
O1799      C1813   1.269   1_554  A
O1799     Cd1803   2.016       .  S
O1800      C2087   1.268   1_554  A
O1800     Cd1803   2.028       .  S
Zn1801     O1812   2.021       .  S
Zn1801     O1814   1.931       .  S
Zn1801     O1806   1.891       .  S
O1802      C2089   1.271       .  A
O1802     Cd1807   2.041       .  S
Cd1803     O1805   2.032       .  S
Cd1803     O2082   1.957   1_554  S
Cd1804     O1808   2.086       .  S
Cd1804     O1817   2.176       .  S
Cd1804     O2082   2.002   1_554  S
O1805      C1815   1.266       .  A
O1806     Cd2079   1.957       .  S
O1806     Cd2080   2.002       .  S
O1806     Cd1807   1.968       .  S
Cd1807     O1809   2.040       .  S
O1808      C1815   1.272       .  A
C1810      O2073   1.292       .  A
C1810      O1814   1.265       .  A
C1810      C1902   1.469       .  S
C1811      O2076   1.268       .  A
C1813      O2078   1.271       .  A
C1815      C1819   1.453       .  S
C1816      O2074   1.265       .  A
C1816      O1817   1.288   1_556  A
O1818      C1834   1.272       .  A
O1818     Zn1824   1.995       .  S
C1819      O1835   1.271       .  A
C1819      O1832   1.267       .  A
O1820      C1833   1.292       .  A
O1820     Cd1827   2.166       .  S
O1821      C1839   1.265       .  A
O1821     Cd1830   2.005       .  S
O1822      C1836   1.269       .  A
O1822     Cd1826   2.016       .  S
O1823      C1834   1.268       .  A
O1823     Cd1826   2.027       .  S
Zn1824     O1835   2.021       .  S
Zn1824     O1837   1.932       .  S
Zn1824     O1829   1.891       .  S
O1825      C1836   1.271       .  A
O1825     Cd1830   2.042       .  S
Cd1826     O1828   2.032       .  S
Cd1826     O1829   1.957       .  S
Cd1827     O1831   2.086       .  S
Cd1827     O1840   2.176       .  S
Cd1827     O1829   2.002       .  S
O1828      C1838   1.266       .  A
O1829     Cd1830   1.968       .  S
Cd1830     O1832   2.040       .  S
O1831      C1838   1.272       .  A
C1833      O1837   1.265       .  A
C1833      C1925   1.469       .  S
C1839      O1840   1.288       .  A
O1841      C1857   1.271       .  A
O1841     Zn1847   2.021       .  S
C1842      O2134   1.270       .  A
C1842      O1855   1.268       .  A
O1843      C1856   1.298       .  A
O1843     Cd1850   2.202       .  S
O1844      C1862   1.265       .  A
O1844     Cd1853   2.021       .  S
O1845      C2135   1.272   1_554  A
O1845     Cd1849   2.054       .  S
O1846      C1857   1.269       .  A
O1846     Cd1849   2.054       .  S
Zn1847     O1858   1.975       .  S
Zn1847     O1860   1.921       .  S
Zn1847     O2128   1.888       .  S
O1848      C1859   1.266       .  A
O1848     Cd1853   2.026       .  S
Cd1849     O1851   1.982       .  S
Cd1849     O2128   1.936       .  S
Cd1850     O1854   2.211       .  S
Cd1850     O1863   2.108       .  S
Cd1850     O1852   2.004       .  S
O1851      C2137   1.267       .  A
O1852     Zn2123   1.888       .  S
O1852     Cd2125   1.936       .  S
O1852     Cd1853   1.957       .  S
Cd1853     O1855   2.014       .  S
O1854      C1861   1.298       .  A
C1856      O2136   1.264       .  A
C1857      C1885   1.457       .  S
O1858      C2118   1.270       .  A
C1859      O2121   1.272       .  A
O1860      C2132   1.264       .  A
C1861      O2127   1.267       .  A
C1861      C1903   1.493       .  S
C1862      O1863   1.276       .  A
C1862      C1880   1.457       .  S
O1864      C1880   1.271       .  A
O1864     Zn1870   2.021       .  S
C1865      O1881   1.270       .  A
C1865      O1878   1.268       .  A
O1866      C1879   1.298       .  A
O1866     Cd1873   2.202       .  S
O1867      C1885   1.266       .  A
O1867     Cd1876   2.021       .  S
O1868      C1882   1.272       .  A
O1868     Cd1872   2.054       .  S
O1869      C1880   1.269       .  A
O1869     Cd1872   2.054       .  S
Zn1870     O1881   1.976       .  S
Zn1870     O1883   1.921       .  S
Zn1870     O1875   1.888       .  S
O1871      C1882   1.267       .  A
O1871     Cd1876   2.027       .  S
Cd1872     O1874   1.982       .  S
Cd1872     O1875   1.936       .  S
Cd1873     O1877   2.210       .  S
Cd1873     O1886   2.107       .  S
Cd1873     O1875   2.004       .  S
O1874      C1884   1.268       .  A
O1875     Cd1876   1.957       .  S
Cd1876     O1878   2.013       .  S
O1877      C1884   1.298       .  A
C1879      O1883   1.264       .  A
C1884      C1926   1.492       .  S
C1885      O1886   1.276       .  A
O1887      C2179   1.280       .  A
O1887     Zn1893   2.020       .  S
C1888      O1904   1.274       .  A
C1888      O1901   1.272       .  A
C1888      C1930   1.470       .  S
O1889      C1902   1.273       .  A
O1889     Cd1896   2.090       .  S
O1890      C2184   1.278   1_554  A
O1891      C1905   1.278       .  A
O1891     Cd1895   2.139       .  S
O1892      C1903   1.277       .  A
O1892     Cd1895   2.137       .  S
Zn1893     O1904   2.040       .  S
Zn1893     O2174   1.927   1_554  S
O1894      C2181   1.281       .  A
O1894     Cd1899   2.067       .  S
Cd1895     O1897   2.100       .  S
Cd1895     O1898   2.083       .  S
Cd1896     O1900   2.090       .  S
Cd1896     O1909   2.094       .  S
O1898     Zn2169   1.927       .  S
O1898     Cd2175   1.979       .  S
Cd1899     O1901   2.076       .  S
Cd1899     O2174   1.979   1_554  S
O1900      C1907   1.279       .  A
C1902      O2182   1.278       .  A
C1903      O2163   1.280       .  A
C1905      O2170   1.281       .  A
O1906      C2178   1.278   1_554  A
C1908      O2166   1.278       .  A
C1908      O1909   1.274       .  A
O1910      C1926   1.280       .  A
O1910     Zn1916   2.020       .  S
C1911      O1927   1.274       .  A
C1911      O1924   1.272       .  A
O1912      C1925   1.273       .  A
O1912     Cd1919   2.089       .  S
O1913      C1931   1.278       .  A
O1914      C1928   1.278       .  A
O1914     Cd1918   2.139       .  S
O1915      C1926   1.277       .  A
O1915     Cd1918   2.137       .  S
Zn1916     O1927   2.040       .  S
Zn1916     O1921   1.928       .  S
O1917      C1928   1.281       .  A
O1917     Cd1922   2.068       .  S
Cd1918     O1920   2.100       .  S
Cd1918     O1921   2.083       .  S
Cd1919     O1923   2.090       .  S
Cd1919     O1932   2.094       .  S
O1920      C1930   1.281       .  A
O1921     Cd1922   1.979       .  S
Cd1922     O1924   2.076       .  S
C1925      O1929   1.278       .  A
C1931      O1932   1.274       .  A
O1933      C1949   1.284       .  A
O1933     Zn1939   2.084       .  S
C1934      O1950   1.278       .  A
C1934      O1947   1.270       .  A
O1935     Cd1942   2.094       .  S
O1937      C1951   1.276       .  A
O1937     Cd1941   2.118       .  S
O1938     Cd1941   2.092       .  S
Zn1939     O1950   2.065       .  S
Zn1939     O1944   1.961       .  S
O1940     Cd1945   2.084       .  S
Cd1941     O1943   2.097       .  S
Cd1942     O1946   2.096       .  S
Cd1942     O1955   2.119       .  S
O1944     Cd1945   1.979       .  S
Cd1945     O1947   2.060       .  S
O1946      C1953   1.280       .  A
C1948      O1952   1.284       .  A
C1948      C1994   1.481   1_556  S
C1949      C2132   1.479   1_556  S
C1951      C2092   1.487       .  S
C1954      O1955   1.276       .  A
O1956      C1972   1.284       .  A
C1957      O1973   1.278       .  A
C1957      O1970   1.270       .  A
O1958      C1971   1.274       .  A
O1958     Cd1965   2.093       .  S
O1959      C1977   1.280       .  A
O1959     Cd1968   2.084       .  S
O1960      C1974   1.276       .  A
O1960     Cd1964   2.118       .  S
O1961      C1972   1.274       .  A
O1961     Cd1964   2.092       .  S
Zn1962     O1975   2.086       .  S
Zn1962     O1967   1.961       .  S
O1963      C1974   1.280       .  A
Cd1964     O1966   2.097       .  S
Cd1965     O1969   2.096       .  S
Cd1965     O1978   2.119       .  S
Cd1965     O1967   2.054       .  S
O1967     Cd1968   1.979       .  S
O1969      C1976   1.280       .  A
C1971      O1975   1.284       .  A
C1971      C2017   1.480       .  S
C1972      C2155   1.479       .  S
C1974      C2115   1.487       .  S
C1977      O1978   1.276       .  A
C1977      C2068   1.487       .  S
O1979     Zn1985   1.974       .  S
C1980      O1996   1.270       .  A
C1980      O1993   1.268       .  A
C1980      C2022   1.457       .  S
O1981      C1994   1.298   1_556  A
O1981     Cd1988   2.205       .  S
O1982     Cd1991   1.975       .  S
O1983      C1997   1.266       .  A
O1983     Cd1987   2.029       .  S
O1984      C1995   1.269   1_556  A
O1984     Cd1987   2.015       .  S
Zn1985     O1996   2.021       .  S
Zn1985     O1998   1.920       .  S
O1986     Cd1991   2.053       .  S
Cd1987     O1989   2.021       .  S
Cd1987     O1990   1.957   1_556  S
Cd1988     O1992   2.108       .  S
Cd1988     O2001   2.214       .  S
Cd1988     O1990   2.005   1_556  S
O1989      C1999   1.266       .  A
Cd1991     O1993   2.052       .  S
O1992      C1999   1.276       .  A
C1999      C2003   1.457       .  S
C2000      O2001   1.298   1_554  A
C2000      C2181   1.493       .  S
O2002      C2018   1.270       .  A
O2002     Zn2008   1.974       .  S
C2003      O2019   1.270       .  A
C2003      O2016   1.268       .  A
O2004      C2017   1.298       .  A
O2004     Cd2011   2.205       .  S
O2005      C2023   1.267       .  A
O2005     Cd2014   1.976       .  S
O2006      C2020   1.267       .  A
O2006     Cd2010   2.030       .  S
O2007      C2018   1.269       .  A
O2007     Cd2010   2.015       .  S
Zn2008     O2019   2.021       .  S
Zn2008     O2021   1.919       .  S
Zn2008     O2013   1.888       .  S
O2009      C2020   1.271       .  A
O2009     Cd2014   2.053       .  S
Cd2010     O2012   2.021       .  S
Cd2010     O2013   1.957       .  S
Cd2011     O2015   2.108       .  S
Cd2011     O2024   2.214       .  S
Cd2011     O2013   2.005       .  S
O2012      C2022   1.266       .  A
O2013     Cd2014   1.935       .  S
Cd2014     O2016   2.052       .  S
O2015      C2022   1.276       .  A
C2017      O2021   1.263       .  A
C2023      O2024   1.298       .  A
C2023      C2204   1.493       .  S
O2025      C2041   1.271       .  A
O2025     Zn2031   2.020       .  S
C2026      O2042   1.272       .  A
O2027     Cd2034   2.166       .  S
O2028      C2046   1.266       .  A
O2028     Cd2037   2.032       .  S
O2029      C2043   1.270       .  A
O2029     Cd2033   2.041       .  S
O2030      C2041   1.267       .  A
O2030     Cd2033   2.041       .  S
Zn2031     O2042   1.998       .  S
Zn2031     O2044   1.933       .  S
Zn2031     O2036   1.894       .  S
O2032     Cd2037   2.016       .  S
Cd2033     O2035   2.005       .  S
Cd2033     O2036   1.969       .  S
Cd2034     O2038   2.176       .  S
Cd2034     O2047   2.084       .  S
O2035      C2045   1.265       .  A
Cd2037     O2039   2.026       .  S
C2040      O2044   1.265       .  A
C2040      C2184   1.470       .  S
C2041      C2069   1.453       .  S
C2046      O2047   1.272       .  A
C2046      C2064   1.452       .  S
O2048      C2064   1.271       .  A
O2048     Zn2054   2.020       .  S
C2049      O2065   1.272       .  A
C2049      O2062   1.267       .  A
O2050      C2063   1.293       .  A
O2050     Cd2057   2.166       .  S
O2051      C2069   1.266       .  A
O2051     Cd2060   2.032       .  S
O2052      C2066   1.270       .  A
O2052     Cd2056   2.041       .  S
O2053      C2064   1.267       .  A
O2053     Cd2056   2.041       .  S
Zn2054     O2065   1.999       .  S
Zn2054     O2067   1.933       .  S
Zn2054     O2059   1.895       .  S
O2055      C2066   1.269       .  A
O2055     Cd2060   2.016       .  S
Cd2056     O2058   2.005       .  S
Cd2056     O2059   1.969       .  S
Cd2057     O2061   2.176       .  S
Cd2057     O2070   2.084       .  S
Cd2057     O2059   2.003       .  S
O2058      C2068   1.265       .  A
O2059     Cd2060   1.958       .  S
Cd2060     O2062   2.026       .  S
O2061      C2068   1.288       .  A
C2063      O2067   1.265       .  A
C2063      C2207   1.470       .  S
C2069      O2070   1.272       .  A
O2071      C2087   1.272       .  A
O2071     Zn2077   1.995       .  S
C2072      O2088   1.271       .  A
C2072      O2085   1.267       .  A
C2072      C2114   1.453       .  S
O2073     Cd2080   2.165       .  S
O2074     Cd2083   2.005       .  S
O2075      C2089   1.269       .  A
O2075     Cd2079   2.016       .  S
O2076     Cd2079   2.028       .  S
Zn2077     O2088   2.021       .  S
Zn2077     O2090   1.931       .  S
Zn2077     O2082   1.891       .  S
O2078     Cd2083   2.041       .  S
Cd2079     O2081   2.032       .  S
Cd2080     O2084   2.086       .  S
Cd2080     O2093   2.176       .  S
O2081      C2091   1.266       .  A
O2082     Cd2083   1.968       .  S
Cd2083     O2085   2.040       .  S
O2084      C2091   1.272       .  A
C2086      O2090   1.265       .  A
C2086      C2178   1.469       .  S
C2091      C2095   1.453       .  S
C2092      O2093   1.288       .  A
O2094      C2110   1.272       .  A
O2094     Zn2100   1.995       .  S
C2095      O2111   1.271       .  A
C2095      O2108   1.267       .  A
O2096      C2109   1.292       .  A
O2096     Cd2103   2.166       .  S
O2097      C2115   1.265       .  A
O2097     Cd2106   2.005       .  S
O2098      C2112   1.269       .  A
O2098     Cd2102   2.016       .  S
O2099      C2110   1.268       .  A
O2099     Cd2102   2.027       .  S
Zn2100     O2111   2.021       .  S
Zn2100     O2113   1.932       .  S
Zn2100     O2105   1.891       .  S
O2101      C2112   1.271       .  A
O2101     Cd2106   2.042       .  S
Cd2102     O2104   2.032       .  S
Cd2102     O2105   1.957       .  S
Cd2103     O2107   2.086       .  S
Cd2103     O2116   2.176       .  S
Cd2103     O2105   2.002       .  S
O2104      C2114   1.266       .  A
O2105     Cd2106   1.968       .  S
Cd2106     O2108   2.040       .  S
O2107      C2114   1.272       .  A
C2109      O2113   1.265       .  A
C2109      C2201   1.469       .  S
C2115      O2116   1.288       .  A
O2117      C2133   1.271       .  A
O2117     Zn2123   2.021       .  S
C2118      O2131   1.268   1_554  A
O2119      C2132   1.298   1_556  A
O2119     Cd2126   2.202       .  S
O2120      C2138   1.265       .  A
O2120     Cd2129   2.021       .  S
O2121     Cd2125   2.054       .  S
O2122      C2133   1.269       .  A
O2122     Cd2125   2.054       .  S
Zn2123     O2134   1.975       .  S
Zn2123     O2136   1.921       .  S
O2124      C2135   1.266       .  A
O2124     Cd2129   2.026       .  S
Cd2125     O2127   1.982       .  S
Cd2126     O2130   2.211       .  S
Cd2126     O2139   2.108       .  S
Cd2126     O2128   2.004   1_556  S
O2128     Cd2129   1.957   1_554  S
Cd2129     O2131   2.014       .  S
O2130      C2137   1.298   1_556  A
C2133      C2161   1.457       .  S
C2137      C2179   1.493       .  S
C2138      O2139   1.276       .  A
C2138      C2156   1.457       .  S
O2140      C2156   1.271       .  A
O2140     Zn2146   2.021       .  S
C2141      O2157   1.270       .  A
C2141      O2154   1.268       .  A
O2142      C2155   1.298       .  A
O2142     Cd2149   2.202       .  S
O2143      C2161   1.266       .  A
O2143     Cd2152   2.021       .  S
O2144      C2158   1.272       .  A
O2144     Cd2148   2.054       .  S
O2145      C2156   1.269       .  A
O2145     Cd2148   2.054       .  S
Zn2146     O2157   1.976       .  S
Zn2146     O2159   1.921       .  S
Zn2146     O2151   1.888       .  S
O2147      C2158   1.267       .  A
O2147     Cd2152   2.027       .  S
Cd2148     O2150   1.982       .  S
Cd2148     O2151   1.936       .  S
Cd2149     O2153   2.210       .  S
Cd2149     O2162   2.107       .  S
Cd2149     O2151   2.004       .  S
O2150      C2160   1.268       .  A
O2151     Cd2152   1.957       .  S
Cd2152     O2154   2.013       .  S
O2153      C2160   1.298       .  A
C2155      O2159   1.264       .  A
C2160      C2202   1.492       .  S
C2161      O2162   1.276       .  A
O2163     Zn2169   2.020       .  S
C2164      O2180   1.274       .  A
C2164      O2177   1.272       .  A
C2164      C2206   1.470       .  S
O2165      C2178   1.273       .  A
O2165     Cd2172   2.090       .  S
O2167      C2181   1.278   1_556  A
O2167     Cd2171   2.139       .  S
O2168      C2179   1.277   1_556  A
O2168     Cd2171   2.137       .  S
Zn2169     O2180   2.040       .  S
O2170     Cd2175   2.067       .  S
Cd2171     O2173   2.100       .  S
Cd2171     O2174   2.083       .  S
Cd2172     O2176   2.090       .  S
Cd2172     O2185   2.094       .  S
Cd2175     O2177   2.076       .  S
O2176      C2183   1.279       .  A
C2184      O2185   1.274       .  A
O2186      C2202   1.280       .  A
O2186     Zn2192   2.020       .  S
C2187      O2203   1.274       .  A
C2187      O2200   1.272       .  A
O2188      C2201   1.273       .  A
O2188     Cd2195   2.089       .  S
O2189      C2207   1.278       .  A
O2190      C2204   1.278       .  A
O2190     Cd2194   2.139       .  S
O2191      C2202   1.277       .  A
O2191     Cd2194   2.137       .  S
Zn2192     O2203   2.040       .  S
Zn2192     O2197   1.928       .  S
O2193      C2204   1.281       .  A
O2193     Cd2198   2.068       .  S
Cd2194     O2196   2.100       .  S
Cd2194     O2197   2.083       .  S
Cd2195     O2199   2.090       .  S
Cd2195     O2208   2.094       .  S
O2196      C2206   1.281       .  A
O2197     Cd2198   1.979       .  S
Cd2198     O2200   2.076       .  S
C2201      O2205   1.278       .  A
C2207      O2208   1.274       .  A
