geometry optimzed in LAMMPS
_audit_creation_date              2020-11-30 
_audit_creation_method            'lammps2cif' 
_symmetry_space_group_name_H-M    'P1' 
_symmetry_Int_Tables_number       1 
_symmetry_cell_setting            triclinic 
loop_ 
_symmetry_equiv_pos_as_xyz 
  x,y,z 
_cell_length_a                    64.69518874 
_cell_length_b                    64.08264417755707 
_cell_length_c                    49.48339579071897 
_cell_angle_alpha                 90.15966144147555 
_cell_angle_beta                  90.36860559975776 
_cell_angle_gamma                 90.21755482392035 
loop_ 
_atom_site_label 
_atom_site_type_symbol 
_atom_site_fract_x 
_atom_site_fract_y 
_atom_site_fract_z 
_atom_site_charge 
In1        In  0.25149257  0.58938252  0.74398491     1.36900
C2          C  0.28338097  0.61583308  0.74515059     0.77400
O3          O  0.23394799  0.61648009  0.72754043    -0.61000
O4          O  0.21920911  0.59819015  0.75742828    -0.51900
C5          C  0.24186651  0.56550801  0.70142930     0.70100
O6          O  0.25479797  0.58024158  0.70035193    -0.46800
C7          C  0.26304600  0.56706899  0.78694571     0.74800
O8          O  0.28289635  0.59997498  0.72996027    -0.58600
O9          O  0.24923832  0.58088025  0.78789421    -0.48700
O10         O  0.26760901  0.61799016  0.75969486    -0.55100
C11         C  0.21816005  0.61377767  0.74191502     0.85000
O12         O  0.23462744  0.56232402  0.72467754    -0.57000
O13         O  0.27019531  0.56393167  0.76364119    -0.60300
C14         C  0.07637913  0.73963129  0.75464542     0.80100
N15         N  0.08738083  0.72165522  0.75054754    -0.78200
C16         C  0.10846183  0.72215834  0.75100824     0.82500
N17         N  0.11828498  0.74040853  0.75613872    -0.78200
C18         C  0.10779903  0.75827270  0.76041910     0.82600
N19         N  0.08679160  0.75796573  0.75929609    -0.79900
C20         C  0.42436046  0.74203144  0.72710121     0.80100
N21         N  0.41469524  0.76081657  0.72337128    -0.78200
C22         C  0.39366108  0.76179194  0.72319806     0.82500
N23         N  0.38253505  0.74427736  0.72749765    -0.78200
C24         C  0.39174359  0.72571245  0.73164793     0.82600
N25         N  0.41270189  0.72448362  0.73111171    -0.79900
In26       In  0.25033771  0.89155289  0.74439213     1.36900
C27         C  0.28379340  0.86858814  0.73306763     0.77400
O28         O  0.26535205  0.91894989  0.76559807    -0.61000
O29         O  0.24922426  0.89691021  0.78933560    -0.51900
C30         C  0.23965551  0.91577420  0.70270457     0.70100
O31         O  0.25276483  0.90131566  0.70089458    -0.46800
C32         C  0.21760803  0.86643920  0.75303338     0.74800
O33         O  0.26619809  0.86500413  0.72289557    -0.58600
O34         O  0.21631910  0.88342267  0.74043759    -0.48700
O35         O  0.28443439  0.88442852  0.74815431    -0.55100
C36         C  0.26019264  0.91320986  0.78896630     0.85000
O37         O  0.23282412  0.91855733  0.72624737    -0.57000
O38         O  0.23557311  0.86245974  0.76154522    -0.60300
C39         C  0.92085159  0.74124534  0.74486808     0.80100
N40         N  0.91109347  0.76001195  0.74181054    -0.78200
C41         C  0.89058553  0.76065016  0.73577870     0.82500
N42         N  0.87990817  0.74264302  0.73312405    -0.78200
C43         C  0.88902919  0.72391075  0.73656649     0.82600
N44         N  0.90961469  0.72316748  0.74249368    -0.79900
In45       In  0.75340309  0.58123685  0.73975549     1.36900
C46         C  0.78391220  0.60945334  0.73922748     0.77400
O47         O  0.77285011  0.55590401  0.72080215    -0.61000
O48         O  0.75221992  0.57278418  0.69579008    -0.51900
C49         C  0.74355810  0.55653916  0.78113514     0.70100
O50         O  0.75711716  0.57071326  0.78268429    -0.46800
C51         C  0.71926473  0.60458158  0.74180263     0.74800
O52         O  0.78461154  0.59347672  0.75407968    -0.58600
O53         O  0.72182626  0.59076050  0.72386469    -0.48700
O54         O  0.76771872  0.61080294  0.72511319    -0.55100
C55         C  0.76615279  0.55912715  0.69719762     0.85000
O56         O  0.73576163  0.55423250  0.75785758    -0.57000
O57         O  0.73406151  0.60618241  0.75840672    -0.60300
C58         C  0.57963409  0.73264543  0.73453492     0.80100
N59         N  0.58929541  0.71374214  0.73677044    -0.78200
C60         C  0.60998643  0.71286979  0.74199310     0.82500
N61         N  0.62087051  0.73084378  0.74491519    -0.78200
C62         C  0.61173224  0.74968690  0.74213804     0.82600
N63         N  0.59108610  0.75055140  0.73691891    -0.79900
In64       In  0.74760673  0.89206386  0.74124929     1.36900
C65         C  0.78074834  0.86764640  0.73919256     0.77400
O66         O  0.73166155  0.86429088  0.75877134    -0.61000
O67         O  0.71693955  0.87946547  0.72592659    -0.51900
C68         C  0.73682736  0.91543197  0.78344998     0.70100
O69         O  0.75145632  0.90251950  0.78422513    -0.46800
C70         C  0.75845501  0.91561293  0.69932496     0.74800
O71         O  0.77909393  0.88208826  0.75642364    -0.58600
O72         O  0.74417153  0.90220851  0.69791427    -0.48700
O73         O  0.76543351  0.86577051  0.72350984    -0.55100
C74         C  0.71640166  0.86473418  0.74281884     0.85000
O75         O  0.72822156  0.91709594  0.76058974    -0.57000
O76         O  0.76598665  0.91804832  0.72268779    -0.60300
C77         C  0.00570701  0.31620948  0.52825301     0.80100
N78         N  0.98820014  0.32810851  0.52630982    -0.78200
C79         C  0.98931940  0.34919289  0.53015359     0.82500
N80         N  0.00786877  0.35799707  0.53599450    -0.78200
C81         C  0.02528303  0.34658119  0.53769341     0.82600
N82         N  0.02423491  0.32569897  0.53349080    -0.79900
In83       In  0.84832735  0.48214931  0.48961227     1.36900
C84         C  0.87106780  0.51555944  0.47692643     0.77400
O85         O  0.82189537  0.49960061  0.50833381    -0.61000
O86         O  0.84035735  0.48033937  0.53345397    -0.51900
C87         C  0.82598675  0.46934178  0.44723232     0.70100
O88         O  0.84045914  0.48246155  0.44559387    -0.46800
C89         C  0.87494984  0.45204070  0.50290626     0.74800
O90         O  0.87418974  0.49769886  0.46703403    -0.58600
O91         O  0.87724741  0.47085161  0.50977685    -0.48700
O92         O  0.85583170  0.51647851  0.49259530    -0.55100
C93         C  0.82584386  0.49335097  0.53196493     0.85000
O94         O  0.82220682  0.46337625  0.47097227    -0.57000
O95         O  0.85852401  0.44838999  0.48989668    -0.60300
C96         C  0.00079177  0.65316808  0.47020185     0.80100
N97         N  0.98235925  0.64276546  0.46819608    -0.78200
C98         C  0.98190444  0.62203229  0.46248168     0.82500
N99         N  0.99986068  0.61172351  0.45917986    -0.78200
C100        C  0.01835480  0.62147846  0.46165473     0.82600
N101        N  0.01884464  0.64233090  0.46723012    -0.79900
In102      In  0.15629454  0.48523896  0.49570857     1.36900
C103        C  0.12976939  0.51598049  0.48383694     0.77400
O104        O  0.13195063  0.47025307  0.52141780    -0.61000
O105        O  0.14806206  0.45093436  0.49399061    -0.51900
C106        C  0.17764937  0.47368462  0.45185356     0.70100
O107        O  0.16160700  0.48474148  0.45066717    -0.46800
C108        C  0.17960807  0.49824399  0.53747383     0.74800
O109        O  0.12590006  0.49697202  0.47955117    -0.58600
O110        O  0.16627710  0.48396142  0.53927307    -0.48700
O111        O  0.14742979  0.51935825  0.49380852    -0.55100
C112        C  0.13415828  0.45220987  0.51165515     0.85000
O113        O  0.18324713  0.46920763  0.47561079    -0.57000
O114        O  0.18184912  0.50520548  0.51384234    -0.60300
C115        C  0.99709750  0.80972611  0.47660721     0.80100
N116        N  0.97832699  0.81920104  0.47925852    -0.78200
C117        C  0.97654202  0.84010367  0.47590990     0.82500
N118        N  0.99343851  0.85153870  0.47015513    -0.78200
C119        C  0.01229665  0.84269315  0.46764129     0.82600
N120        N  0.01417642  0.82164095  0.47101736    -0.79900
C121        C  0.00325455  0.15991830  0.51026148     0.80100
N122        N  0.98517795  0.14965795  0.50466318    -0.78200
C123        C  0.98487551  0.12852235  0.50242969     0.82500
N124        N  0.00248783  0.11766062  0.50650507    -0.78200
C125        C  0.02049344  0.12748967  0.51242852     0.82600
N126        N  0.02097074  0.14868404  0.51397564    -0.79900
In127      In  0.14813071  0.98235236  0.49417981     1.36900
C128        C  0.12616585  0.01630787  0.50640315     0.77400
O129        O  0.17728901  0.99469371  0.47471267    -0.61000
O130        O  0.15316716  0.98374543  0.44931060    -0.51900
C131        C  0.16978389  0.97200018  0.53836008     0.70100
O132        O  0.15520736  0.98495097  0.53880565    -0.46800
C133        C  0.12268198  0.95069504  0.48131184     0.74800
O134        O  0.14199282  0.01697077  0.49163150    -0.58600
O135        O  0.11815833  0.96963203  0.47836287    -0.48700
O136        O  0.12205998  0.99840886  0.51550598    -0.55100
C137        C  0.17096722  0.99169696  0.45083913     0.85000
O138        O  0.17334366  0.96450869  0.51527692    -0.57000
O139        O  0.14059797  0.94772462  0.49063143    -0.60300
In140      In  0.85047166  0.98727250  0.49519219     1.36900
C141        C  0.87507351  0.02099829  0.49223881     0.77400
O142        O  0.87533063  0.96650816  0.51261803    -0.61000
O143        O  0.86023788  0.95710435  0.47638725    -0.51900
C144        C  0.82758027  0.97631292  0.53744506     0.70100
O145        O  0.84267462  0.98879618  0.53933975    -0.46800
C146        C  0.82652742  0.99681562  0.45321055     0.74800
O147        O  0.85910100  0.02054606  0.50671289    -0.58600
O148        O  0.84156287  0.98443985  0.45172578    -0.48700
O149        O  0.87861211  0.00412092  0.48010454    -0.55100
C150        C  0.87375109  0.95303219  0.49405519     0.85000
O151        O  0.82374031  0.97014123  0.51370940    -0.57000
O152        O  0.82297154  0.00352861  0.47671841    -0.60300
C153        C  0.50392370  0.66099826  0.00787306     0.80100
N154        N  0.52215476  0.65047749  0.00473293    -0.78200
C155        C  0.52203477  0.62947121  0.00050780     0.82500
N156        N  0.50374736  0.61921678  0.99935677    -0.78200
C157        C  0.48559206  0.62923029  0.00278770     0.82600
N158        N  0.48567409  0.65017294  0.00704092    -0.79900
In159      In  0.65609261  0.48722979  0.98947943     1.36900
C160        C  0.63036182  0.45464849  0.99124809     0.77400
O161        O  0.68103540  0.46678001  0.00763012    -0.61000
O162        O  0.66733913  0.48966550  0.03255901    -0.51900
C163        C  0.67913774  0.49597795  0.94602973     0.70100
O164        O  0.66510516  0.48229618  0.94580804    -0.46800
C165        C  0.63130356  0.52087563  0.98995615     0.74800
O166        O  0.64168365  0.45831626  0.97110983    -0.58600
O167        O  0.64832975  0.52049791  0.00249478    -0.48700
O168        O  0.63213013  0.46779000  0.01015804    -0.55100
C169        C  0.67967477  0.47452956  0.03101620     0.85000
O170        O  0.68183494  0.50460782  0.96873369    -0.57000
O171        O  0.62709776  0.50413627  0.97768940    -0.60300
C172        C  0.49831799  0.31786989  0.98985604     0.80100
N173        N  0.51693884  0.32799534  0.98997077    -0.78200
C174        C  0.51783879  0.34905508  0.99298282     0.82500
N175        N  0.50014619  0.35998593  0.99597380    -0.78200
C176        C  0.48151120  0.35031343  0.99522751     0.82600
N177        N  0.48057525  0.32921684  0.99219018    -0.79900
In178      In  0.34629790  0.49151567  0.99690223     1.36900
C179        C  0.37131862  0.45836741  0.99868264     0.77400
O180        O  0.37295571  0.50919230  0.98011273    -0.61000
O181        O  0.35837903  0.52189714  0.01461187    -0.51900
C182        C  0.32432467  0.50352720  0.95364466     0.70100
O183        O  0.33853033  0.49017474  0.95262633    -0.46800
C184        C  0.32220620  0.48096106  0.03831072     0.74800
O185        O  0.35642669  0.45961566  0.98216444    -0.58600
O186        O  0.33453487  0.49624042  0.03920865    -0.48700
O187        O  0.37313092  0.47391469  0.01417816    -0.55100
C188        C  0.37244131  0.52376810  0.99721671     0.85000
O189        O  0.32034192  0.50979648  0.97722948    -0.57000
O190        O  0.32137720  0.47185548  0.01566245    -0.60300
C191        C  0.49521817  0.16082658  0.98722182     0.80100
N192        N  0.47694418  0.15019720  0.98963762    -0.78200
C193        C  0.47691361  0.12907623  0.99230869     0.82500
N194        N  0.49506300  0.11871702  0.99268107    -0.78200
C195        C  0.51327949  0.12881271  0.98984439     0.82600
N196        N  0.51339995  0.14994426  0.98714349    -0.79900
C197        C  0.50051222  0.81741260  0.99524508     0.80100
N198        N  0.48214706  0.82795536  0.99380895    -0.78200
C199        C  0.48205827  0.84890469  0.98918297     0.82500
N200        N  0.50024035  0.85905401  0.98619161    -0.78200
C201        C  0.51853253  0.84903030  0.98797260     0.82600
N202        N  0.51867712  0.82816525  0.99256715    -0.79900
In203      In  0.65303156  0.99159450  0.98967127     1.36900
C204        C  0.62833777  0.95795871  0.98840922     0.77400
O205        O  0.62671201  0.00933917  0.00732129    -0.61000
O206        O  0.64088625  0.02216555  0.97266921    -0.51900
C207        C  0.67576145  0.00317623  0.03220538     0.70100
O208        O  0.66201927  0.98921391  0.03309256    -0.46800
C209        C  0.67680244  0.98112560  0.94802961     0.74800
O210        O  0.64352235  0.95927612  0.00444732    -0.58600
O211        O  0.66272163  0.99461518  0.94646365    -0.48700
O212        O  0.62612131  0.97364697  0.97340897    -0.55100
C213        C  0.62695497  0.02391091  0.99027878     0.85000
O214        O  0.67865448  0.01070689  0.00898041    -0.57000
O215        O  0.67952076  0.97380100  0.97141440    -0.60300
In216      In  0.34314337  0.98652590  0.99993384     1.36900
C217        C  0.36992190  0.95498988  0.99681305     0.77400
O218        O  0.31901875  0.96621080  0.97983575    -0.61000
O219        O  0.33172644  0.99129464  0.95750990    -0.51900
C220        C  0.31992788  0.99532189  0.04269966     0.70100
O221        O  0.33527390  0.98331115  0.04381053    -0.46800
C222        C  0.36687556  0.02073971  0.00140046     0.74800
O223        O  0.35486753  0.95476339  0.01288783    -0.58600
O224        O  0.35297527  0.01805765  0.98371320    -0.48700
O225        O  0.37113016  0.97127581  0.98270550    -0.55100
C226        C  0.31982193  0.97567406  0.95752970     0.85000
O227        O  0.31575477  0.00191629  0.01930761    -0.57000
O228        O  0.36824150  0.00612914  0.01830476    -0.60300
In229      In  0.25148692  0.38881432  0.24331466     1.36900
C230        C  0.28313210  0.36297414  0.25483107     0.77400
O231        O  0.23511796  0.36334533  0.21985261    -0.61000
O232        O  0.21794642  0.37944492  0.24938437    -0.51900
C233        C  0.24152183  0.41187011  0.28640755     0.70100
O234        O  0.25452091  0.39727535  0.28740689    -0.46800
C235        C  0.26161573  0.41310876  0.20123348     0.74800
O236        O  0.26499844  0.36028126  0.26327914    -0.58600
O237        O  0.24939716  0.39779235  0.19939871    -0.48700
O238        O  0.28521756  0.37903774  0.24047434    -0.55100
C239        C  0.21808200  0.36514797  0.23188171     0.85000
O240        O  0.23453082  0.41542001  0.26301259    -0.57000
O241        O  0.26820489  0.41647747  0.22490481    -0.60300
C242        C  0.41973213  0.23290518  0.27483360     0.80100
N243        N  0.40938426  0.25150058  0.27658359    -0.78200
C244        C  0.38874321  0.25176919  0.28212945     0.82500
N245        N  0.37870186  0.23346147  0.28583809    -0.78200
C246        C  0.38846050  0.21490666  0.28374169     0.82600
N247        N  0.40901321  0.21462769  0.27798256    -0.79900
In248      In  0.24772886  0.08213247  0.25006786     1.36900
C249        C  0.28061404  0.10533055  0.26460905     0.77400
O250        O  0.26372424  0.05494622  0.23066306    -0.61000
O251        O  0.24647560  0.07518111  0.20545807    -0.51900
C252        C  0.23591308  0.05702529  0.29004008     0.70100
O253        O  0.24942556  0.07109503  0.29299058    -0.46800
C254        C  0.21630610  0.10792188  0.23898583     0.74800
O255        O  0.26271457  0.10828836  0.27374032    -0.58600
O256        O  0.23400068  0.10990515  0.22874379    -0.48700
O257        O  0.28178276  0.09020946  0.24840374    -0.55100
C258        C  0.25812096  0.05949662  0.20696506     0.85000
O259        O  0.22885712  0.05537203  0.26629852    -0.57000
O260        O  0.21461459  0.09254781  0.25461135    -0.60300
C261        C  0.07882181  0.23684799  0.22389120     0.80100
N262        N  0.08939976  0.25519858  0.22063945    -0.78200
C263        C  0.10995414  0.25505716  0.21496979     0.82500
N264        N  0.11978582  0.23657789  0.21271004    -0.78200
C265        C  0.10981175  0.21822783  0.21639757     0.82600
N266        N  0.08925410  0.21834780  0.22217861    -0.79900
C267        C  0.92354441  0.23568012  0.23100407     0.80100
N268        N  0.91325367  0.25428608  0.23184713    -0.78200
C269        C  0.89261788  0.25464166  0.23677453     0.82500
N270        N  0.88238785  0.23656903  0.24073438    -0.78200
C271        C  0.89209863  0.21797787  0.23945678     0.82600
N272        N  0.91277529  0.21747182  0.23458840    -0.79900
In273      In  0.75132854  0.08173339  0.24450445     1.36900
C274        C  0.78363705  0.10763061  0.24400107     0.77400
O275        O  0.73304965  0.10821807  0.22740756    -0.61000
O276        O  0.71930793  0.09096038  0.25901210    -0.51900
C277        C  0.74094313  0.05923996  0.20110718     0.70100
O278        O  0.75433624  0.07354363  0.20069039    -0.46800
C279        C  0.76294149  0.05957187  0.28792162     0.74800
O280        O  0.78340295  0.09089638  0.23051372    -0.58600
O281        O  0.74973997  0.07397329  0.28897127    -0.48700
O282        O  0.76749816  0.11079388  0.25752492    -0.55100
C283        C  0.71749265  0.10570272  0.24225009     0.85000
O284        O  0.73391919  0.05533621  0.22431227    -0.57000
O285        O  0.76932459  0.05575031  0.26439210    -0.60300
C286        C  0.57464215  0.22891675  0.25237746     0.80100
N287        N  0.58478321  0.21060978  0.24719458    -0.78200
C288        C  0.60524653  0.21082817  0.24073585     0.82500
N289        N  0.61540455  0.22928400  0.23957076    -0.78200
C290        C  0.60586081  0.24748756  0.24524438     0.82600
N291        N  0.58544249  0.24732859  0.25172435    -0.79900
In292      In  0.74702011  0.38370157  0.24073096     1.36900
C293        C  0.77987920  0.35885224  0.24015559     0.77400
O294        O  0.76765386  0.40844969  0.25925692    -0.61000
O295        O  0.74478150  0.39448318  0.28381614    -0.51900
C296        C  0.73594625  0.40601210  0.19734942     0.70100
O297        O  0.74732843  0.39016713  0.19627497    -0.46800
C298        C  0.71429093  0.35818022  0.24264250     0.74800
O299        O  0.77737916  0.37336439  0.22329642    -0.58600
O300        O  0.71576308  0.37413194  0.25755595    -0.48700
O301        O  0.76556923  0.35713335  0.25718982    -0.55100
C302        C  0.75990415  0.40690113  0.28250979     0.85000
O303        O  0.73071900  0.41109215  0.22100283    -0.57000
O304        O  0.72950037  0.35544253  0.22731550    -0.60300
C305        C  0.67484456  0.30218794  0.19780906    -0.18000
C306        C  0.65924319  0.28708064  0.19784386    -0.20100
C307        C  0.64591153  0.28527545  0.21995737     0.20500
C308        C  0.64794221  0.29913283  0.24202294    -0.03100
C309        C  0.66377635  0.31440718  0.24201142    -0.06100
C310        C  0.67739013  0.31571529  0.21990654     0.20800
C311        C  0.66626789  0.32803130  0.26428640     0.18900
C312        C  0.65268676  0.32634326  0.28623412    -0.17600
C313        C  0.63700811  0.31113290  0.28628598    -0.19800
C314        C  0.63455646  0.29732956  0.26436367     0.20400
C315        C  0.61952044  0.28129488  0.26471237    -0.32800
C316        C  0.61812196  0.26694076  0.24318465     0.01100
C317        C  0.63109685  0.26933606  0.22074534    -0.24200
C318        C  0.69357253  0.33025403  0.22040266    -0.28800
C319        C  0.69639481  0.34372642  0.24256495     0.06800
C320        C  0.68250319  0.34278704  0.26433684    -0.27400
H321        H  0.68512456  0.30308928  0.18064575     0.11500
H322        H  0.65781392  0.27657130  0.18073496     0.12600
H323        H  0.65433941  0.33663432  0.30352741     0.11700
H324        H  0.62695400  0.31000077  0.30364816     0.11000
H325        H  0.60977644  0.27926271  0.28225396     0.16400
H326        H  0.63011101  0.25821898  0.20420640     0.12300
H327        H  0.70410657  0.33100801  0.20347085     0.15100
H328        H  0.68463788  0.35312748  0.28150943     0.14900
C329        C  0.66468543  0.17816805  0.19698971    -0.18000
C330        C  0.68098172  0.16392087  0.19799872    -0.20100
C331        C  0.68125220  0.14807726  0.21751182     0.20500
C332        C  0.66454159  0.14604772  0.23551881    -0.03100
C333        C  0.64796883  0.16038287  0.23437598    -0.06100
C334        C  0.64834092  0.17676938  0.21541873     0.20800
C335        C  0.63153956  0.15889406  0.25297147     0.18900
C336        C  0.63152994  0.14257018  0.27185856    -0.17600
C337        C  0.64796331  0.12836625  0.27299737    -0.19800
C338        C  0.66473740  0.13017303  0.25524631     0.20400
C339        C  0.68190309  0.11675251  0.25725201    -0.32800
C340        C  0.69887247  0.11909264  0.23979867     0.01100
C341        C  0.69819993  0.13459653  0.21972680    -0.24200
C342        C  0.63302224  0.19215878  0.21619998    -0.28800
C343        C  0.61731690  0.19158185  0.23575225     0.06800
C344        C  0.61611669  0.17441291  0.25333566    -0.27400
H345        H  0.66513418  0.19061517  0.18222574     0.11500
H346        H  0.69363045  0.16560184  0.18390811     0.12600
H347        H  0.61905768  0.14109917  0.28624205     0.11700
H348        H  0.64774823  0.11620751  0.28816083     0.11000
H349        H  0.68221132  0.10475905  0.27264821     0.16400
H350        H  0.71108512  0.13643358  0.20602033     0.12300
H351        H  0.63398168  0.20533223  0.20253778     0.15100
H352        H  0.60418865  0.17399762  0.26861053     0.14900
C353        C  0.81420246  0.17273828  0.27805582    -0.18000
C354        C  0.82994194  0.18764496  0.27844396    -0.20100
C355        C  0.84740031  0.18515412  0.26213882     0.20500
C356        C  0.84925046  0.16738650  0.24548354    -0.03100
C357        C  0.83333625  0.15225130  0.24516129    -0.06100
C358        C  0.81574011  0.15507280  0.26145359     0.20800
C359        C  0.83485107  0.13452528  0.22829539     0.18900
C360        C  0.85239190  0.13214557  0.21196320    -0.17600
C361        C  0.86814477  0.14727568  0.21213373    -0.19800
C362        C  0.86670498  0.16503764  0.22872119     0.20400
C363        C  0.88188871  0.18090155  0.22811315    -0.32800
C364        C  0.87949887  0.19903373  0.24386632     0.01100
C365        C  0.86259993  0.20061638  0.26144540    -0.24200
C366        C  0.79983132  0.14030649  0.26081244    -0.28800
C367        C  0.80109286  0.12259401  0.24418265     0.06800
C368        C  0.81869577  0.11969385  0.22796942    -0.27400
H369        H  0.80075496  0.17509224  0.29062282     0.11500
H370        H  0.82831544  0.20129727  0.29122344     0.12600
H371        H  0.85384333  0.11866817  0.19884880     0.11700
H372        H  0.88135390  0.14519124  0.19906597     0.11000
H373        H  0.89478784  0.17972540  0.21432935     0.16400
H374        H  0.86075861  0.21450857  0.27377486     0.12300
H375        H  0.78634533  0.14268498  0.27332442     0.15100
H376        H  0.81972757  0.10607307  0.21501152     0.14900
C377        C  0.82469618  0.30830225  0.28677875    -0.18000
C378        C  0.84134439  0.29447987  0.28672849    -0.20100
C379        C  0.85344251  0.29205109  0.26350737     0.20500
C380        C  0.84899081  0.30389578  0.24021567    -0.03100
C381        C  0.83213278  0.31782825  0.24025104    -0.06100
C382        C  0.81986702  0.31989664  0.26360284     0.20800
C383        C  0.82731617  0.32936508  0.21680090     0.18900
C384        C  0.83940118  0.32684235  0.19355438    -0.17600
C385        C  0.85604317  0.31291754  0.19346093    -0.19800
C386        C  0.86095087  0.30131307  0.21663868     0.20400
C387        C  0.87694169  0.28647711  0.21632124    -0.32800
C388        C  0.88075519  0.27406763  0.23913637     0.01100
C389        C  0.86928555  0.27726042  0.26278033    -0.24200
C390        C  0.80284729  0.33333984  0.26330451    -0.28800
C391        C  0.79801021  0.34495283  0.24010225     0.06800
C392        C  0.81037299  0.34302062  0.21695579    -0.27400
H393        H  0.81544855  0.30975231  0.30486632     0.11500
H394        H  0.84456941  0.28544508  0.30473470     0.12600
H395        H  0.83586358  0.33550528  0.17534242     0.11700
H396        H  0.86493827  0.31105090  0.17514127     0.11000
H397        H  0.88540026  0.28355988  0.19785646     0.16400
H398        H  0.87198424  0.26733230  0.28016389     0.12300
H399        H  0.79338558  0.33483587  0.28121373     0.15100
H400        H  0.80658812  0.35185899  0.19895442     0.14900
C401        C  0.01152573  0.27314783  0.21626831    -0.18000
C402        C  0.98988815  0.27270496  0.21578924    -0.20100
C403        C  0.97910442  0.25427567  0.22188580     0.20500
C404        C  0.99027006  0.23610980  0.22855440    -0.03100
C405        C  0.01215772  0.23653556  0.22893144    -0.06100
C406        C  0.02281254  0.25513434  0.22267811     0.20800
C407        C  0.02335353  0.21831784  0.23529289     0.18900
C408        C  0.01254544  0.19996927  0.24177563    -0.17600
C409        C  0.99088530  0.19958383  0.24157655    -0.19800
C410        C  0.97958930  0.21752719  0.23484098     0.20400
C411        C  0.95783753  0.21728010  0.23464764    -0.32800
C412        C  0.94651582  0.23544721  0.22852162     0.01100
C413        C  0.95737655  0.25381151  0.22181745    -0.24200
C414        C  0.04453963  0.25530697  0.22229953    -0.28800
C415        C  0.05591206  0.23700896  0.22752808     0.06800
C416        C  0.04511038  0.21865082  0.23449816    -0.27400
H417        H  0.01944626  0.28757005  0.21140145     0.11500
H418        H  0.98157727  0.28681836  0.21068529     0.12600
H419        H  0.02085613  0.18584492  0.24683302     0.11700
H420        H  0.98295749  0.18519976  0.24661574     0.11000
H421        H  0.94975842  0.20304090  0.23997718     0.16400
H422        H  0.94893667  0.26790358  0.21695653     0.12300
H423        H  0.05254747  0.26957776  0.21694649     0.15100
H424        H  0.05360189  0.20448618  0.23883367     0.14900
C425        C  0.17330199  0.18404974  0.18682968    -0.18000
C426        C  0.18875232  0.16919655  0.19086185    -0.20100
C427        C  0.18599617  0.15308669  0.20962914     0.20500
C428        C  0.16731731  0.15169794  0.22415340    -0.03100
C429        C  0.15170255  0.16676713  0.22013290    -0.06100
C430        C  0.15487951  0.18309730  0.20158842     0.20800
C431        C  0.13325293  0.16589905  0.23526257     0.18900
C432        C  0.13043842  0.14956590  0.25376734    -0.17600
C433        C  0.14587778  0.13453868  0.25763864    -0.19800
C434        C  0.16445548  0.13557795  0.24313423     0.20400
C435        C  0.18036058  0.12103861  0.24756416    -0.32800
C436        C  0.19914665  0.12257177  0.23343364     0.01100
C437        C  0.20174771  0.13856696  0.21438973    -0.24200
C438        C  0.14005085  0.19878880  0.19900929    -0.28800
C439        C  0.12219638  0.19882734  0.21511649     0.06800
C440        C  0.11846744  0.18190401  0.23251164    -0.27400
H441        H  0.17594243  0.19654904  0.17253954     0.11500
H442        H  0.20297554  0.17046254  0.17953035     0.12600
H443        H  0.11643225  0.14860278  0.26558686     0.11700
H444        H  0.14340132  0.12225832  0.27228579     0.11000
H445        H  0.17825938  0.10876585  0.26233808     0.16400
H446        H  0.21614499  0.13984574  0.20341243     0.12300
H447        H  0.14294255  0.21166433  0.18534114     0.15100
H448        H  0.10481733  0.18188475  0.24509589     0.14900
C449        C  0.50567788  0.19407734  0.24842558    -0.18000
C450        C  0.48409928  0.19479821  0.25087951    -0.20100
C451        C  0.47423041  0.21317056  0.25933861     0.20500
C452        C  0.48630576  0.23098969  0.26534222    -0.03100
C453        C  0.50814641  0.23023106  0.26297377    -0.06100
C454        C  0.51787851  0.21169832  0.25442324     0.20800
C455        C  0.52020209  0.24805066  0.26902851     0.18900
C456        C  0.51035495  0.26638845  0.27760328    -0.17600
C457        C  0.48878612  0.26714949  0.27989318    -0.19800
C458        C  0.47658516  0.24957697  0.27372574     0.20400
C459        C  0.45488942  0.25024947  0.27603363    -0.32800
C460        C  0.44264186  0.23246480  0.27053551     0.01100
C461        C  0.45255668  0.21398260  0.26208181    -0.24200
C462        C  0.53956817  0.21117664  0.25171350    -0.28800
C463        C  0.55177941  0.22902167  0.25720440     0.06800
C464        C  0.54183906  0.24734343  0.26611019    -0.27400
H465        H  0.51283001  0.17970398  0.24178434     0.11500
H466        H  0.47511556  0.18094660  0.24614470     0.12600
H467        H  0.51934167  0.28022016  0.28241818     0.11700
H468        H  0.48163608  0.28153500  0.28648858     0.11000
H469        H  0.44759050  0.26453173  0.28274182     0.16400
H470        H  0.44341184  0.20016822  0.25766715     0.12300
H471        H  0.54686709  0.19696653  0.24475264     0.15100
H472        H  0.55091314  0.26119565  0.27054996     0.14900
C473        C  0.30909341  0.16682051  0.31219922    -0.18000
C474        C  0.32458354  0.18189567  0.31542192    -0.20100
C475        C  0.34315523  0.18030881  0.30107749     0.20500
C476        C  0.34654509  0.16296179  0.28412206    -0.03100
C477        C  0.33090433  0.14765465  0.28095848    -0.06100
C478        C  0.31195847  0.14984996  0.29467677     0.20800
C479        C  0.33390394  0.13063268  0.26328493     0.18900
C480        C  0.35276978  0.12876566  0.24959220    -0.17600
C481        C  0.36822195  0.14402270  0.25258751    -0.19800
C482        C  0.36515520  0.16138935  0.26945194     0.20400
C483        C  0.37984294  0.17769426  0.27088842    -0.32800
C484        C  0.37589681  0.19560614  0.28652333     0.01100
C485        C  0.35789331  0.19633228  0.30234061    -0.24200
C486        C  0.29592692  0.13547895  0.28995274    -0.28800
C487        C  0.29847592  0.11891091  0.27162369     0.06800
C488        C  0.31771182  0.11626034  0.25888333    -0.27400
H489        H  0.29468664  0.16868265  0.32296617     0.11500
H490        H  0.32179776  0.19512272  0.32858315     0.12600
H491        H  0.35538713  0.11575558  0.23602052     0.11700
H492        H  0.38239155  0.14247550  0.24122232     0.11000
H493        H  0.39361834  0.17704740  0.25857002     0.16400
H494        H  0.35483390  0.20997077  0.31469761     0.12300
H495        H  0.28122027  0.13757154  0.29995946     0.15100
H496        H  0.31983093  0.10347197  0.24479334     0.14900
C497        C  0.17248989  0.28946620  0.18111793    -0.18000
C498        C  0.18790054  0.30467037  0.18392170    -0.20100
C499        C  0.18577746  0.32089159  0.20277185     0.20500
C500        C  0.16764561  0.32218788  0.21840692    -0.03100
C501        C  0.15195407  0.30689668  0.21539773    -0.06100
C502        C  0.15462754  0.29028712  0.19701611     0.20800
C503        C  0.13399705  0.30777957  0.23147433     0.18900
C504        C  0.13174731  0.32427955  0.24995531    -0.17600
C505        C  0.14735642  0.33938126  0.25304120    -0.19800
C506        C  0.16549905  0.33834323  0.23761387     0.20400
C507        C  0.18175717  0.35278589  0.24149744    -0.32800
C508        C  0.20011615  0.35121332  0.22639627     0.01100
C509        C  0.20176032  0.33544231  0.20675035    -0.24200
C510        C  0.13988491  0.27425137  0.19570738    -0.28800
C511        C  0.12243564  0.27441328  0.21255999     0.06800
C512        C  0.11916192  0.29162986  0.22969468    -0.27400
H513        H  0.17473495  0.27681831  0.16687311     0.11500
H514        H  0.20170170  0.30348739  0.17172419     0.12600
H515        H  0.11810419  0.32525436  0.26247583     0.11700
H516        H  0.14537528  0.35169580  0.26783194     0.11000
H517        H  0.18032361  0.36491048  0.25668011     0.16400
H518        H  0.21578036  0.33412057  0.19499060     0.12300
H519        H  0.14245736  0.26108245  0.18234333     0.15100
H520        H  0.10586244  0.29175408  0.24290741     0.14900
C521        C  0.36914311  0.32045258  0.24344492    -0.18000
C522        C  0.35392325  0.33561623  0.23888891    -0.20100
C523        C  0.33508761  0.33494654  0.25286251     0.20500
C524        C  0.33179693  0.31906294  0.27208014    -0.03100
C525        C  0.34715805  0.30376143  0.27667375    -0.06100
C526        C  0.36584865  0.30427103  0.26204393     0.20800
C527        C  0.34348920  0.28755858  0.29526085     0.18900
C528        C  0.32490168  0.28712038  0.30974019    -0.17600
C529        C  0.30977122  0.30227459  0.30528397    -0.19800
C530        C  0.31293111  0.31811450  0.28622040     0.20400
C531        C  0.29736068  0.33272000  0.28069109    -0.32800
C532        C  0.30028198  0.34837742  0.26121007     0.01100
C533        C  0.31934002  0.34957964  0.24762713    -0.24200
C534        C  0.38043321  0.28810746  0.26538807    -0.28800
C535        C  0.37627444  0.27126142  0.28276591     0.06800
C536        C  0.35804118  0.27155982  0.29823001    -0.27400
H537        H  0.38335485  0.32116496  0.23201934     0.11500
H538        H  0.35677754  0.34771378  0.22410745     0.12600
H539        H  0.32188456  0.27479796  0.32415856     0.11700
H540        H  0.29542920  0.30138325  0.31641438     0.11000
H541        H  0.28281845  0.33174123  0.29138503     0.16400
H542        H  0.32174398  0.36160237  0.23259061     0.12300
H543        H  0.39431749  0.28796247  0.25325211     0.15100
H544        H  0.35472524  0.25875608  0.31184151     0.14900
C545        C  0.30610005  0.00951979  0.16493603    -0.18000
C546        C  0.31470708  0.00040032  0.14191209    -0.20100
C547        C  0.30694877  0.00518368  0.11611139     0.20500
C548        C  0.29026054  0.01916339  0.11349543    -0.03100
C549        C  0.28164200  0.02844594  0.13672421    -0.06100
C550        C  0.28964762  0.02361318  0.16255671     0.20800
C551        C  0.26530298  0.04284114  0.13406356     0.18900
C552        C  0.25750328  0.04756469  0.10826841    -0.17600
C553        C  0.26598717  0.03830002  0.08526061    -0.19800
C554        C  0.28245259  0.02422665  0.08763111     0.20400
C555        C  0.29162413  0.01558423  0.06458226    -0.32800
C556        C  0.30860684  0.00209648  0.06701097     0.01100
C557        C  0.31594637  0.99665876  0.09286665    -0.24200
C558        C  0.28133438  0.03327936  0.18548380    -0.28800
C559        C  0.26536331  0.04797380  0.18293611     0.06800
C560        C  0.25730164  0.05255498  0.15717620    -0.27400
H561        H  0.31246649  0.00569755  0.18462550     0.11500
H562        H  0.32754516  0.98975188  0.14426280     0.12600
H563        H  0.24496572  0.05856381  0.10587482     0.11700
H564        H  0.25982437  0.04236078  0.06554454     0.11000
H565        H  0.28593602  0.01987485  0.04469805     0.16400
H566        H  0.32910512  0.98635535  0.09488160     0.12300
H567        H  0.28771625  0.02979229  0.20528214     0.15100
H568        H  0.24502295  0.06389986  0.15508606     0.14900
C569        C  0.73850863  0.05434979  0.10144744    -0.18000
C570        C  0.72912575  0.04690266  0.07770460    -0.20100
C571        C  0.71282234  0.03242370  0.07891122     0.20500
C572        C  0.70599160  0.02531859  0.10436099    -0.03100
C573        C  0.71536988  0.03292032  0.12830916    -0.06100
C574        C  0.73167802  0.04752317  0.12683622     0.20800
C575        C  0.70823354  0.02608055  0.15372864     0.18900
C576        C  0.69197126  0.01158917  0.15496136    -0.17600
C577        C  0.68279107  0.00395017  0.13126285    -0.19800
C578        C  0.68966178  0.01075315  0.10592108     0.20400
C579        C  0.68031335  0.00334419  0.08216159    -0.32800
C580        C  0.68682946  0.01045122  0.05673719     0.01100
C581        C  0.70311046  0.02501362  0.05522171    -0.24200
C582        C  0.74058161  0.05535676  0.15076735    -0.28800
C583        C  0.73323944  0.04894872  0.17617752     0.06800
C584        C  0.71721751  0.03413086  0.17746146    -0.27400
H585        H  0.75099883  0.06557821  0.09996355     0.11500
H586        H  0.73459743  0.05252702  0.05837535     0.12600
H587        H  0.68628174  0.00620426  0.17429548     0.11700
H588        H  0.67023028  0.99280216  0.13275479     0.11000
H589        H  0.66766859  0.99226447  0.08351610     0.16400
H590        H  0.70814459  0.03062878  0.03567235     0.12300
H591        H  0.75283070  0.06689168  0.14960109     0.15100
H592        H  0.71137954  0.02923449  0.19694963     0.14900
C593        C  0.60426585  0.88726530  0.01719455    -0.18000
C594        C  0.58915794  0.87144714  0.01636427    -0.20100
C595        C  0.57163193  0.87335091  0.99961023     0.20500
C596        C  0.56972093  0.89114442  0.98298233    -0.03100
C597        C  0.58484119  0.90709817  0.98393776    -0.06100
C598        C  0.60211919  0.90533287  0.00134993     0.20800
C599        C  0.58233691  0.92508476  0.96789235     0.18900
C600        C  0.56517437  0.92685673  0.95065408    -0.17600
C601        C  0.55029920  0.91110208  0.94964986    -0.19800
C602        C  0.55230566  0.89339569  0.96597503     0.20400
C603        C  0.53662652  0.87844026  0.96643885    -0.32800
C604        C  0.53762606  0.86138172  0.98411052     0.01100
C605        C  0.55552624  0.85839105  0.99998861    -0.24200
C606        C  0.61664328  0.92183057  0.00281026    -0.28800
C607        C  0.61392163  0.93993939  0.98702416     0.06800
C608        C  0.59681749  0.94123515  0.96953537    -0.27400
H609        H  0.61746167  0.88551711  0.03057958     0.11500
H610        H  0.59099716  0.85790696  0.02920600     0.12600
H611        H  0.56311128  0.94057552  0.93819378     0.11700
H612        H  0.53696874  0.91298511  0.93651385     0.11000
H613        H  0.52300520  0.88064403  0.95387109     0.16400
H614        H  0.55634221  0.84525438  0.01369770     0.12300
H615        H  0.62984629  0.92068327  0.01631132     0.15100
H616        H  0.59456408  0.95505744  0.95729807     0.14900
C617        C  0.39794544  0.88614125  0.02496386    -0.18000
C618        C  0.41329476  0.87078084  0.02322892    -0.20100
C619        C  0.42976320  0.87296195  0.00506379     0.20500
C620        C  0.43048025  0.89069736  0.98816015    -0.03100
C621        C  0.41503662  0.90618077  0.98993031    -0.06100
C622        C  0.39876005  0.90400279  0.00858166     0.20800
C623        C  0.41615239  0.92405003  0.97337940     0.18900
C624        C  0.43240235  0.92619716  0.95497859    -0.17600
C625        C  0.44768522  0.91094372  0.95328938    -0.19800
C626        C  0.44695042  0.89328597  0.96995129     0.20400
C627        C  0.46285755  0.87860152  0.96937111    -0.32800
C628        C  0.46284665  0.86133867  0.98688881     0.01100
C629        C  0.44592391  0.85821932  0.00417191    -0.24200
C630        C  0.38381976  0.91986273  0.01072012    -0.28800
C631        C  0.38507652  0.93783147  0.99445159     0.06800
C632        C  0.40120077  0.93965470  0.97572041    -0.27400
H633        H  0.38555344  0.88415724  0.03936518     0.11500
H634        H  0.41243691  0.85732779  0.03638743     0.12600
H635        H  0.43343643  0.93981457  0.94211747     0.11700
H636        H  0.46027149  0.91311664  0.93921407     0.11000
H637        H  0.47578446  0.88104611  0.95586887     0.16400
H638        H  0.44592236  0.84507185  0.01790014     0.12300
H639        H  0.37139189  0.91833150  0.02517471     0.15100
H640        H  0.40226900  0.95339442  0.96305977     0.14900
C641        C  0.59534447  0.08826966  0.95197594    -0.18000
C642        C  0.57970053  0.10339530  0.95234295    -0.20100
C643        C  0.56441052  0.10305925  0.97238338     0.20500
C644        C  0.56505276  0.08732605  0.99233505    -0.03100
C645        C  0.58089570  0.07218555  0.99207941    -0.06100
C646        C  0.59607448  0.07254493  0.97170950     0.20800
C647        C  0.58130383  0.05646951  0.01199122     0.18900
C648        C  0.56600625  0.05595852  0.03192370    -0.17600
C649        C  0.55022904  0.07075124  0.03198813    -0.19800
C650        C  0.54959731  0.08641574  0.01227335     0.20400
C651        C  0.53343560  0.10082868  0.01179673    -0.32800
C652        C  0.53241341  0.11635757  0.99184812     0.01100
C653        C  0.54816460  0.11771974  0.97244807    -0.24200
C654        C  0.61144419  0.05698477  0.97126955    -0.28800
C655        C  0.61173770  0.04115946  0.99100681     0.06800
C656        C  0.59674441  0.04125263  0.01142586    -0.27400
H657        H  0.60681615  0.08880502  0.93613489     0.11500
H658        H  0.57944069  0.11523709  0.93676347     0.12600
H659        H  0.56610046  0.04394754  0.04729278     0.11700
H660        H  0.53841834  0.06985214  0.04738007     0.11000
H661        H  0.52125087  0.09968518  0.02669682     0.16400
H662        H  0.54720092  0.12943829  0.95674249     0.12300
H663        H  0.62294562  0.05702108  0.95543732     0.15100
H664        H  0.59682168  0.02916589  0.02671476     0.14900
C665        C  0.40830051  0.10296468  0.96207720    -0.18000
C666        C  0.39313405  0.08726657  0.96289206    -0.20100
C667        C  0.39413454  0.07137740  0.98237545     0.20500
C668        C  0.41042255  0.07154368  0.00148974    -0.03100
C669        C  0.42577499  0.08726156  0.00055010    -0.06100
C670        C  0.42481851  0.10302670  0.98065163     0.20800
C671        C  0.44244528  0.08678157  0.01903568     0.18900
C672        C  0.44343000  0.07106395  0.03864861    -0.17600
C673        C  0.42813760  0.05568393  0.03977381    -0.19800
C674        C  0.41171566  0.05567373  0.02114896     0.20400
C675        C  0.39691912  0.03970107  0.02144693    -0.32800
C676        C  0.38099160  0.03898713  0.00203671     0.01100
C677        C  0.37949184  0.05504775  0.98273440    -0.24200
C678        C  0.44082983  0.11798636  0.97908972    -0.28800
C679        C  0.45786861  0.11688498  0.99681866     0.06800
C680        C  0.45829281  0.10153985  0.01700766    -0.27400
H681        H  0.40729671  0.11485815  0.94661246     0.11500
H682        H  0.38074561  0.08741686  0.94805820     0.12600
H683        H  0.45619077  0.07051051  0.05292335     0.11700
H684        H  0.42935135  0.04357262  0.05493254     0.11000
H685        H  0.39819839  0.02741973  0.03638692     0.16400
H686        H  0.36722974  0.05460629  0.96771306     0.12300
H687        H  0.44066739  0.12960610  0.96321386     0.15100
H688        H  0.47147871  0.10064982  0.03061815     0.14900
C689        C  0.26488558  0.42176981  0.10228877    -0.18000
C690        C  0.27333010  0.43127328  0.07945672    -0.20100
C691        C  0.28703956  0.44816193  0.08219434     0.20500
C692        C  0.29200709  0.45584079  0.10822259    -0.03100
C693        C  0.28355466  0.44615393  0.13132864    -0.06100
C694        C  0.27006424  0.42894741  0.12829781     0.20800
C695        C  0.28901739  0.45333637  0.15743298     0.18900
C696        C  0.30247336  0.47048199  0.16011338    -0.17600
C697        C  0.31078180  0.48014145  0.13721174    -0.19800
C698        C  0.30582706  0.47279461  0.11117413     0.20400
C699        C  0.31491070  0.48166330  0.08810908    -0.32800
C700        C  0.31055819  0.47357140  0.06216818     0.01100
C701        C  0.29631999  0.45707875  0.05940661    -0.24200
C702        C  0.26238877  0.41882730  0.15127829    -0.28800
C703        C  0.26823492  0.42541524  0.17738617     0.06800
C704        C  0.28133431  0.44290124  0.18030488    -0.27400
H705        H  0.25454944  0.40858679  0.09961748     0.11500
H706        H  0.26933836  0.42520596  0.05961550     0.12600
H707        H  0.30680861  0.47626538  0.17997426     0.11700
H708        H  0.32134310  0.49314569  0.13988046     0.11000
H709        H  0.32594162  0.49431720  0.09043473     0.16400
H710        H  0.29288083  0.45075994  0.03951321     0.12300
H711        H  0.25234639  0.40537986  0.14880101     0.15100
H712        H  0.28589853  0.44811543  0.20035046     0.14900
C713        C  0.53344780  0.22794282  0.98168964    -0.18000
C714        C  0.53387390  0.24977331  0.98221792    -0.20100
C715        C  0.51554188  0.26116275  0.98524396     0.20500
C716        C  0.49658591  0.25043736  0.98787074    -0.03100
C717        C  0.49615950  0.22834633  0.98737748    -0.06100
C718        C  0.51468696  0.21707193  0.98422889     0.20800
C719        C  0.47723274  0.21757164  0.99005481     0.18900
C720        C  0.45891159  0.22899357  0.99328148    -0.17600
C721        C  0.45933053  0.25086561  0.99373584    -0.19800
C722        C  0.47807945  0.26175799  0.99098468     0.20400
C723        C  0.47865709  0.28372777  0.99132185    -0.32800
C724        C  0.49753951  0.29460403  0.98866067     0.01100
C725        C  0.51589737  0.28307238  0.98568424    -0.24200
C726        C  0.51419518  0.19514260  0.98379531    -0.28800
C727        C  0.49541498  0.18414672  0.98652000     0.06800
C728        C  0.47696842  0.19559977  0.98957806    -0.27400
H729        H  0.54783038  0.21954893  0.97930197     0.11500
H730        H  0.54857264  0.25776016  0.98021648     0.12600
H731        H  0.44422828  0.22100455  0.99543596     0.11700
H732        H  0.44496124  0.25926717  0.99621652     0.11000
H733        H  0.46439506  0.29231354  0.99383236     0.16400
H734        H  0.53057106  0.29111929  0.98372580     0.12300
H735        H  0.52853694  0.18665709  0.98149239     0.15100
H736        H  0.46237861  0.18745336  0.99185187     0.14900
C737        C  0.39966683  0.39270803  0.96057257    -0.18000
C738        C  0.41491989  0.37722079  0.96041303    -0.20100
C739        C  0.43059482  0.37709175  0.98018012     0.20500
C740        C  0.43066230  0.39257685  0.00056904    -0.03100
C741        C  0.41529117  0.40819345  0.00071739    -0.06100
C742        C  0.39980938  0.40838557  0.98047958     0.20800
C743        C  0.41573826  0.42390490  0.02075639     0.18900
C744        C  0.43117844  0.42363272  0.04078781    -0.17600
C745        C  0.44641528  0.40824075  0.04059099    -0.19800
C746        C  0.44644883  0.39284874  0.02038289     0.20400
C747        C  0.46240960  0.37819116  0.01910817    -0.32800
C748        C  0.46277680  0.36309253  0.99849501     0.01100
C749        C  0.44658393  0.36223993  0.97944524    -0.24200
C750        C  0.38506572  0.42449984  0.98020654    -0.28800
C751        C  0.38579231  0.44050227  0.99976631     0.06800
C752        C  0.40102796  0.43988885  0.02013630    -0.27400
H753        H  0.38790349  0.39257961  0.94488863     0.11500
H754        H  0.41461907  0.36550496  0.94458651     0.12600
H755        H  0.43166659  0.43553688  0.05637522     0.11700
H756        H  0.45839049  0.40858408  0.05600345     0.11000
H757        H  0.47494927  0.37885840  0.03375507     0.16400
H758        H  0.44704117  0.35077472  0.96331151     0.12300
H759        H  0.37335489  0.42485312  0.96445043     0.15100
H760        H  0.40165835  0.45208792  0.03534947     0.14900
C761        C  0.72800977  0.40881256  0.09804679    -0.18000
C762        C  0.72047613  0.41851795  0.07467661    -0.20100
C763        C  0.70988117  0.43755193  0.07635794     0.20500
C764        C  0.70700524  0.44697134  0.10189892    -0.03100
C765        C  0.71457091  0.43714356  0.12551678    -0.06100
C766        C  0.72507362  0.41796456  0.12355033     0.20800
C767        C  0.71139426  0.44639792  0.15110424     0.18900
C768        C  0.70093339  0.46549365  0.15276826    -0.17600
C769        C  0.69345492  0.47522696  0.12939347    -0.19800
C770        C  0.69628810  0.46603065  0.10389647     0.20400
C771        C  0.68817731  0.47535265  0.08047617    -0.32800
C772        C  0.69054035  0.46585941  0.05499446     0.01100
C773        C  0.70170837  0.44710125  0.05307673    -0.24200
C774        C  0.73228973  0.40816204  0.14710849    -0.28800
C775        C  0.72899321  0.41714814  0.17272095     0.06800
C776        C  0.71855507  0.43629847  0.17454373    -0.27400
H777        H  0.73602504  0.39407701  0.09619175     0.11500
H778        H  0.72281290  0.41103311  0.05526390     0.12600
H779        H  0.69839505  0.47285872  0.17221011     0.11700
H780        H  0.68527861  0.48986384  0.13128163     0.11000
H781        H  0.67954362  0.48974266  0.08218632     0.16400
H782        H  0.70349749  0.43958783  0.03356522     0.12300
H783        H  0.74019952  0.39333654  0.14552270     0.15100
H784        H  0.71594489  0.44330354  0.19420016     0.14900
C785        C  0.57695903  0.41513284  0.04008623    -0.18000
C786        C  0.56136173  0.40000895  0.04046610    -0.20100
C787        C  0.55804310  0.38697715  0.01803345     0.20500
C788        C  0.57099978  0.38865247  0.99530438    -0.03100
C789        C  0.58662408  0.40410753  0.99480387    -0.06100
C790        C  0.58938234  0.41757103  0.01717569     0.20800
C791        C  0.59900073  0.40653267  0.97162978     0.18900
C792        C  0.59611038  0.39296638  0.94956510    -0.17600
C793        C  0.58068165  0.37754836  0.95011575    -0.19800
C794        C  0.56780313  0.37546630  0.97270537     0.20400
C795        C  0.55122146  0.36114042  0.97270497    -0.32800
C796        C  0.53765395  0.36035883  0.99476289     0.01100
C797        C  0.54142033  0.37295179  0.01750135    -0.24200
C798        C  0.60408829  0.43363801  0.01600489    -0.28800
C799        C  0.61598452  0.43666117  0.99266533     0.06800
C800        C  0.61363641  0.42280989  0.97070706    -0.27400
H801        H  0.57897864  0.42526226  0.05747582     0.11500
H802        H  0.55160437  0.39879131  0.05811773     0.12600
H803        H  0.60554664  0.39451772  0.93166612     0.11700
H804        H  0.57851704  0.36756501  0.93261434     0.11000
H805        H  0.54811310  0.35158780  0.95501587     0.16400
H806        H  0.53086026  0.37234458  0.03442929     0.12300
H807        H  0.60591755  0.44412542  0.03308973     0.15100
H808        H  0.62286772  0.42496125  0.95271800     0.14900
C809        C  0.46459496  0.74936220  0.00711573    -0.18000
C810        C  0.46517536  0.72760066  0.00951306    -0.20100
C811        C  0.48408862  0.71693250  0.00877212     0.20500
C812        C  0.50260050  0.72831909  0.00559525    -0.03100
C813        C  0.50201503  0.75030809  0.00320382    -0.06100
C814        C  0.48292119  0.76088428  0.00399495     0.20800
C815        C  0.52052356  0.76166856  0.99988979     0.18900
C816        C  0.53941757  0.75099311  0.99884778    -0.17600
C817        C  0.53999124  0.72923812  0.00116421    -0.19800
C818        C  0.52168290  0.71774273  0.00455926     0.20400
C819        C  0.52211058  0.69585565  0.00641349    -0.32800
C820        C  0.50367459  0.68426865  0.00904437     0.01100
C821        C  0.48474960  0.69506722  0.01063295    -0.24200
C822        C  0.48247600  0.78275537  0.00159329    -0.28800
C823        C  0.50090191  0.79427663  0.99843755     0.06800
C824        C  0.51985568  0.78348731  0.99759702    -0.27400
H825        H  0.44978597  0.75718412  0.00768874     0.11500
H826        H  0.45079242  0.71909454  0.01182677     0.12600
H827        H  0.55377724  0.75947705  0.99620752     0.11700
H828        H  0.55477575  0.72139145  0.00020235     0.11000
H829        H  0.53679638  0.68784950  0.00509839     0.16400
H830        H  0.47039733  0.68645583  0.01265627     0.12300
H831        H  0.46775947  0.79076219  0.00214269     0.15100
H832        H  0.53418864  0.79202687  0.99498466     0.14900
C833        C  0.59261138  0.60554337  0.02581416    -0.18000
C834        C  0.60773497  0.58989043  0.02477086    -0.20100
C835        C  0.60562641  0.57292790  0.00685911     0.20500
C836        C  0.58839121  0.57216164  0.98923496    -0.03100
C837        C  0.57320841  0.58798391  0.99019160    -0.06100
C838        C  0.57509401  0.60460969  0.00889888     0.20800
C839        C  0.55573237  0.58669159  0.97309159     0.18900
C840        C  0.55386588  0.57016681  0.95458409    -0.17600
C841        C  0.56883577  0.55455362  0.95365845    -0.19800
C842        C  0.58593476  0.55521737  0.97120085     0.20400
C843        C  0.60027969  0.53890880  0.97143314    -0.32800
C844        C  0.61721516  0.53913935  0.98936326     0.01100
C845        C  0.62006365  0.55644833  0.00669142    -0.24200
C846        C  0.55900554  0.61937791  0.01110793    -0.28800
C847        C  0.54104016  0.61734415  0.99508779     0.06800
C848        C  0.53992080  0.60136894  0.97558454    -0.27400
H849        H  0.59442098  0.61816784  0.04025291     0.11500
H850        H  0.62088835  0.59084121  0.03838630     0.12600
H851        H  0.54055109  0.56904286  0.94124993     0.11700
H852        H  0.56681539  0.54171388  0.93958017     0.11000
H853        H  0.59805500  0.52579361  0.95781643     0.16400
H854        H  0.63313589  0.55681180  0.02049707     0.12300
H855        H  0.55989267  0.63158311  0.02628214     0.15100
H856        H  0.52618911  0.59983376  0.96301826     0.14900
C857        C  0.40044146  0.59087376  0.03300842    -0.18000
C858        C  0.41600282  0.60620938  0.03323545    -0.20100
C859        C  0.43264794  0.60503242  0.01518332     0.20500
C860        C  0.43319398  0.58851335  0.99620594    -0.03100
C861        C  0.41749153  0.57314334  0.99589558    -0.06100
C862        C  0.40117920  0.57411236  0.01465851     0.20800
C863        C  0.41846961  0.55647714  0.97724519     0.18900
C864        C  0.43478052  0.55545603  0.95879647    -0.17600
C865        C  0.45036031  0.57054100  0.95923386    -0.19800
C866        C  0.44981975  0.58691278  0.97805044     0.20400
C867        C  0.46610265  0.60119124  0.97965275    -0.32800
C868        C  0.46628485  0.61709980  0.99921729     0.01100
C869        C  0.44918296  0.61947017  0.01640261    -0.24200
C870        C  0.38620455  0.55808374  0.01500180    -0.28800
C871        C  0.38740465  0.54126170  0.99668709     0.06800
C872        C  0.40340695  0.54081044  0.97766968    -0.27400
H873        H  0.38798511  0.59196072  0.04747051     0.11500
H874        H  0.41523445  0.61875539  0.04790787     0.12600
H875        H  0.43568957  0.54276757  0.94433932     0.11700
H876        H  0.46305414  0.56918701  0.94515602     0.11000
H877        H  0.47912777  0.59948986  0.96612601     0.16400
H878        H  0.44930328  0.63170608  0.03156856     0.12300
H879        H  0.37381795  0.55856962  0.02963309     0.15100
H880        H  0.40442344  0.52795979  0.96344317     0.14900
C881        C  0.76323733  0.04851210  0.38705547    -0.18000
C882        C  0.77195357  0.03954875  0.41024207    -0.20100
C883        C  0.78865746  0.02574081  0.40814604     0.20500
C884        C  0.79652408  0.02076748  0.38236407    -0.03100
C885        C  0.78779753  0.02989329  0.35898017    -0.06100
C886        C  0.77110428  0.04386829  0.36134191     0.20800
C887        C  0.79597261  0.02523318  0.33327840     0.18900
C888        C  0.81269383  0.01144671  0.33118423    -0.17600
C889        C  0.82127037  0.00234448  0.35430717    -0.19800
C890        C  0.81333553  0.00695003  0.37995207     0.20400
C891        C  0.82228986  0.99838205  0.40323561    -0.32800
C892        C  0.81499139  0.00375983  0.42902082     0.01100
C893        C  0.79796575  0.01721326  0.43134400    -0.24200
C894        C  0.76274673  0.05315286  0.33800495    -0.28800
C895        C  0.77088160  0.04867553  0.31230217     0.06800
C896        C  0.78744315  0.03461006  0.31015976    -0.27400
H897        H  0.75043833  0.05921182  0.38925266     0.11500
H898        H  0.76571707  0.04355479  0.42985359     0.12600
H899        H  0.81920644  0.00774967  0.31162655     0.11700
H900        H  0.83423947  0.99183915  0.35215283     0.11000
H901        H  0.83547704  0.98811093  0.40129438     0.16400
H902        H  0.79230353  0.02145216  0.45118660     0.12300
H903        H  0.75008295  0.06406469  0.33988104     0.15100
H904        H  0.79394316  0.03120533  0.29049267     0.14900
C905        C  0.23007562  0.02827166  0.40902109    -0.18000
C906        C  0.23899476  0.03770373  0.38642509    -0.20100
C907        C  0.22984784  0.03548489  0.36077376     0.20500
C908        C  0.21192700  0.02307707  0.35768517    -0.03100
C909        C  0.20285805  0.01364755  0.38052652    -0.06100
C910        C  0.21179577  0.01655992  0.40639177     0.20800
C911        C  0.18445347  0.00196711  0.37761695     0.18900
C912        C  0.17572616  0.99911902  0.35180782    -0.17600
C913        C  0.18476193  0.00838128  0.32916452    -0.19800
C914        C  0.20265315  0.02067516  0.33193824     0.20400
C915        C  0.21106439  0.03113666  0.30962479    -0.32800
C916        C  0.22845441  0.04418135  0.31280609     0.01100
C917        C  0.23796725  0.04596299  0.33834564    -0.24200
C918        C  0.20184153  0.00843958  0.42924723    -0.28800
C919        C  0.18291788  0.99772324  0.42661291     0.06800
C920        C  0.17465094  0.99402951  0.40064746    -0.27400
H921        H  0.23721586  0.03057335  0.42868851     0.11500
H922        H  0.25283253  0.04706966  0.38909546     0.12600
H923        H  0.16166178  0.99009667  0.34921354     0.11700
H924        H  0.17748806  0.00628751  0.30954360     0.11000
H925        H  0.20364593  0.02969850  0.28998811     0.16400
H926        H  0.25141965  0.05592027  0.34091600     0.12300
H927        H  0.20838854  0.01121616  0.44917448     0.15100
H928        H  0.16017683  0.98561857  0.39842010     0.14900
C929        C  0.09066461  0.10482485  0.48732907    -0.18000
C930        C  0.10533053  0.08882601  0.48605761    -0.20100
C931        C  0.10251865  0.07028172  0.50066420     0.20500
C932        C  0.08504336  0.06808239  0.51734520    -0.03100
C933        C  0.07024430  0.08421419  0.51862108    -0.06100
C934        C  0.07290782  0.10257862  0.50323196     0.20800
C935        C  0.05233520  0.08154758  0.53435670     0.18900
C936        C  0.04973088  0.06325166  0.54948987    -0.17600
C937        C  0.06441459  0.04733348  0.54831210    -0.19800
C938        C  0.08192015  0.04943462  0.53193093     0.20400
C939        C  0.09593159  0.03292228  0.52911370    -0.32800
C940        C  0.11298463  0.03470093  0.51176789     0.01100
C941        C  0.11645164  0.05362178  0.49811967    -0.24200
C942        C  0.05728738  0.11783219  0.50298201    -0.28800
C943        C  0.03893052  0.11456636  0.51739798     0.06800
C944        C  0.03684511  0.09672507  0.53361382    -0.27400
H945        H  0.09298479  0.11876580  0.47537337     0.11500
H946        H  0.11867518  0.09078545  0.47318129     0.12600
H947        H  0.03607394  0.06103525  0.56173671     0.11700
H948        H  0.06182418  0.03316238  0.55971630     0.11000
H949        H  0.09318363  0.01842553  0.53977568     0.16400
H950        H  0.12956248  0.05510989  0.48472361     0.12300
H951        H  0.05877312  0.13146266  0.49020302     0.15100
H952        H  0.02264846  0.09422735  0.54472106     0.14900
C953        C  0.89867220  0.09061016  0.52386477    -0.18000
C954        C  0.91405053  0.10604949  0.52507161    -0.20100
C955        C  0.93152707  0.10478943  0.50848339     0.20500
C956        C  0.93313084  0.08815073  0.48980880    -0.03100
C957        C  0.91766013  0.07254175  0.48866928    -0.06100
C958        C  0.90053560  0.07356672  0.50615244     0.20800
C959        C  0.91980796  0.05544461  0.47087238     0.18900
C960        C  0.93685975  0.05456973  0.45352160    -0.17600
C961        C  0.95218563  0.06998434  0.45468264    -0.19800
C962        C  0.95068345  0.08653541  0.47317110     0.20400
C963        C  0.96691261  0.10086262  0.47628331    -0.32800
C964        C  0.96587654  0.11683214  0.49571619     0.01100
C965        C  0.94788053  0.11922540  0.51112797    -0.24200
C966        C  0.88608669  0.05710487  0.50642584    -0.28800
C967        C  0.88880111  0.03947407  0.48982096     0.06800
C968        C  0.90535506  0.03909040  0.47152110    -0.27400
H969        H  0.88558172  0.09170915  0.53733422     0.11500
H970        H  0.91251410  0.11870967  0.53946561     0.12600
H971        H  0.93864646  0.04163888  0.43958578     0.11700
H972        H  0.96551495  0.06863743  0.44164490     0.11000
H973        H  0.98083572  0.09906096  0.46440564     0.16400
H974        H  0.94720932  0.13141034  0.52633735     0.12300
H975        H  0.87322992  0.05761918  0.52034718     0.15100
H976        H  0.90738539  0.02571489  0.45834733     0.14900
C977        C  0.05246227  0.92915879  0.45510185    -0.18000
C978        C  0.03719369  0.91387057  0.45232489    -0.20100
C979        C  0.04185363  0.89283467  0.45708451     0.20500
C980        C  0.06216875  0.88697532  0.46395662    -0.03100
C981        C  0.07766934  0.90245002  0.46660786    -0.06100
C982        C  0.07264879  0.92363122  0.46252066     0.20800
C983        C  0.09796802  0.89683180  0.47414866     0.18900
C984        C  0.10265530  0.87565732  0.47815225    -0.17600
C985        C  0.08721580  0.86030129  0.47569006    -0.19800
C986        C  0.06680377  0.86580707  0.46907376     0.20400
C987        C  0.05077461  0.85077515  0.46865656    -0.32800
C988        C  0.03025532  0.85682893  0.46321071     0.01100
C989        C  0.02625818  0.87775396  0.45624690    -0.24200
C990        C  0.08771194  0.93903481  0.46659714    -0.28800
C991        C  0.10779584  0.93374139  0.47496127     0.06800
C992        C  0.11297896  0.91255027  0.47824994    -0.27400
H993        H  0.04839911  0.94535500  0.45186532     0.11500
H994        H  0.02160673  0.91856363  0.44705992     0.12600
H995        H  0.11817738  0.87100530  0.48376316     0.11700
H996        H  0.09115961  0.84415915  0.47952321     0.11000
H997        H  0.05408985  0.83471613  0.47387599     0.16400
H998        H  0.01065287  0.88266592  0.45140294     0.12300
H999        H  0.08359010  0.95528849  0.46391998     0.15100
H1000       H  0.12847763  0.90835167  0.48458704     0.14900
C1001       C  0.93559463  0.88570629  0.53369757    -0.18000
C1002       C  0.92191666  0.90247838  0.53609283    -0.20100
C1003       C  0.91085139  0.90965744  0.51347798     0.20500
C1004       C  0.91325010  0.89948858  0.48833308    -0.03100
C1005       C  0.92711362  0.88261380  0.48588819    -0.06100
C1006       C  0.93848407  0.87584050  0.50865189     0.20800
C1007       C  0.93022032  0.87309700  0.46045062     0.18900
C1008       C  0.91899523  0.88011986  0.43790680    -0.17600
C1009       C  0.90506083  0.89664105  0.44040670    -0.19800
C1010       C  0.90224524  0.90654946  0.46543393     0.20400
C1011       C  0.88896975  0.92368859  0.46779416    -0.32800
C1012       C  0.88688802  0.93423683  0.49256394     0.01100
C1013       C  0.89777479  0.92707195  0.51540179    -0.24200
C1014       C  0.95329710  0.86007146  0.50564724    -0.28800
C1015       C  0.95704601  0.85121660  0.48018518     0.06800
C1016       C  0.94523930  0.85747131  0.45775928    -0.27400
H1017       H  0.94423704  0.88071499  0.55135388     0.11500
H1018       H  0.92022159  0.91003350  0.55555754     0.12600
H1019       H  0.92121666  0.87303282  0.41824017     0.11700
H1020       H  0.89674426  0.90191634  0.42263323     0.11000
H1021       H  0.88069057  0.92921180  0.45010196     0.16400
H1022       H  0.89613631  0.93509482  0.53457909     0.12300
H1023       H  0.96292447  0.85566527  0.52271799     0.15100
H1024       H  0.94863213  0.85105990  0.43798103     0.14900
C1025       C  0.18599575  0.47167251  0.35241466    -0.18000
C1026       C  0.19514762  0.46322409  0.32929277    -0.20100
C1027       C  0.21044095  0.44784199  0.33156733     0.20500
C1028       C  0.21675608  0.44107070  0.35745080    -0.03100
C1029       C  0.20752050  0.44961406  0.38081031    -0.06100
C1030       C  0.19198772  0.46489971  0.37826279     0.20800
C1031       C  0.21366086  0.44266114  0.40668302     0.18900
C1032       C  0.22900385  0.42732616  0.40895332    -0.17600
C1033       C  0.23812187  0.41884444  0.38583246    -0.19800
C1034       C  0.23206146  0.42555326  0.35999068     0.20400
C1035       C  0.24072670  0.41669744  0.33667272    -0.32800
C1036       C  0.23415737  0.42301337  0.31079075     0.01100
C1037       C  0.21920922  0.43880460  0.30844166    -0.24200
C1038       C  0.18255197  0.47296463  0.40156105    -0.28800
C1039       C  0.18850148  0.46602422  0.42743756     0.06800
C1040       C  0.20418750  0.45097715  0.42979048    -0.27400
H1041       H  0.17412464  0.48341011  0.35007295     0.11500
H1042       H  0.19011818  0.46861099  0.30957719     0.12600
H1043       H  0.23388334  0.42178017  0.42865498     0.11700
H1044       H  0.24981493  0.40692629  0.38815927     0.11000
H1045       H  0.25214914  0.40446750  0.33867984     0.16400
H1046       H  0.21400059  0.44370832  0.28857957     0.12300
H1047       H  0.17044711  0.48450869  0.39954044     0.15100
H1048       H  0.20876563  0.44542956  0.44962250     0.14900
C1049       C  0.96311408  0.71931747  0.48497304    -0.18000
C1050       C  0.96267333  0.74111770  0.48616231    -0.20100
C1051       C  0.98092738  0.75278808  0.48330032     0.20500
C1052       C  0.99989291  0.74238740  0.47981331    -0.03100
C1053       C  0.00035968  0.72031001  0.47880029    -0.06100
C1054       C  0.98183993  0.70877354  0.48107501     0.20800
C1055       C  0.01926206  0.70982767  0.47497473     0.18900
C1056       C  0.03756206  0.72154249  0.47263210    -0.17600
C1057       C  0.03708153  0.74341629  0.47347644    -0.19800
C1058       C  0.01829795  0.75402920  0.47676810     0.20400
C1059       C  0.01751018  0.77601980  0.47643608    -0.32800
C1060       C  0.99851093  0.78654260  0.47913214     0.01100
C1061       C  0.98039798  0.77466815  0.48317609    -0.24200
C1062       C  0.98225832  0.68692992  0.47892957    -0.28800
C1063       C  0.00095612  0.67624677  0.47451613     0.06800
C1064       C  0.01946892  0.68788548  0.47300480    -0.27400
H1065       H  0.94875228  0.71070292  0.48683068     0.11500
H1066       H  0.94797487  0.74887106  0.48890456     0.12600
H1067       H  0.05224041  0.71379028  0.46976333     0.11700
H1068       H  0.05139764  0.75204305  0.47121918     0.11000
H1069       H  0.03161821  0.78487842  0.47352931     0.16400
H1070       H  0.96564789  0.78240765  0.48549909     0.12300
H1071       H  0.96787087  0.67829046  0.48030053     0.15100
H1072       H  0.03398990  0.67995202  0.46963081     0.14900
C1073       C  0.04899017  0.55402078  0.43855548    -0.18000
C1074       C  0.06407053  0.53881928  0.44276873    -0.20100
C1075       C  0.08195120  0.54350792  0.45778871     0.20500
C1076       C  0.08486610  0.56384250  0.46826016    -0.03100
C1077       C  0.06949744  0.57916208  0.46425246    -0.06100
C1078       C  0.05145116  0.57409748  0.44953289     0.20800
C1079       C  0.07189013  0.59929543  0.47563811     0.18900
C1080       C  0.09003485  0.60405616  0.49015642    -0.17600
C1081       C  0.10541290  0.58893799  0.49383722    -0.19800
C1082       C  0.10287554  0.56871014  0.48325328     0.20400
C1083       C  0.11779882  0.55315590  0.48778184    -0.32800
C1084       C  0.11471107  0.53273074  0.47790585     0.01100
C1085       C  0.09679209  0.52810727  0.46282948    -0.24200
C1086       C  0.03571276  0.58884872  0.44702120    -0.28800
C1087       C  0.03726467  0.60849946  0.45974687     0.06800
C1088       C  0.05573525  0.61392383  0.47326319    -0.27400
H1089       H  0.03517112  0.54993187  0.42720859     0.11500
H1090       H  0.06163973  0.52331457  0.43451378     0.12600
H1091       H  0.09220959  0.61939538  0.49901595     0.11700
H1092       H  0.11915450  0.59297366  0.50536811     0.11000
H1093       H  0.13156195  0.55680838  0.49950321     0.16400
H1094       H  0.09433856  0.51244096  0.45507975     0.12300
H1095       H  0.02170232  0.58457162  0.43617223     0.15100
H1096       H  0.05708471  0.62898785  0.48314828     0.14900
C1097       C  0.76132887  0.41817166  0.38131459    -0.18000
C1098       C  0.77066774  0.42664870  0.40448514    -0.20100
C1099       C  0.78805186  0.43968827  0.40233615     0.20500
C1100       C  0.79607483  0.44425456  0.37651274    -0.03100
C1101       C  0.78668914  0.43565209  0.35313770    -0.06100
C1102       C  0.76924148  0.42255477  0.35557470     0.20800
C1103       C  0.79489972  0.44000646  0.32736301     0.18900
C1104       C  0.81234629  0.45295604  0.32521586    -0.17600
C1105       C  0.82159583  0.46153444  0.34834845    -0.19800
C1106       C  0.81356590  0.45728235  0.37403970     0.20400
C1107       C  0.82285966  0.46572296  0.39727657    -0.32800
C1108       C  0.81508826  0.46116210  0.42307428     0.01100
C1109       C  0.79767021  0.44811976  0.42548802    -0.24200
C1110       C  0.76018423  0.41381094  0.33229042    -0.28800
C1111       C  0.76842360  0.41783673  0.30655855     0.06800
C1112       C  0.78570241  0.43108619  0.30425889    -0.27400
H1113       H  0.74797249  0.40810062  0.38353028     0.11500
H1114       H  0.76430332  0.42295306  0.42412157     0.12600
H1115       H  0.81889432  0.45641580  0.30561201     0.11700
H1116       H  0.83507054  0.47144875  0.34615621     0.11000
H1117       H  0.83640249  0.47558806  0.39528180     0.16400
H1118       H  0.79167249  0.44446493  0.44534767     0.12300
H1119       H  0.74697940  0.40349069  0.33426464     0.15100
H1120       H  0.79223340  0.43415614  0.28452439     0.14900
C1121       C  0.94386983  0.56254389  0.42416503    -0.18000
C1122       C  0.92847307  0.54730781  0.42639732    -0.20100
C1123       C  0.91369617  0.54859169  0.44694324     0.20500
C1124       C  0.91399866  0.56577480  0.46488370    -0.03100
C1125       C  0.92956045  0.58117927  0.46262981    -0.06100
C1126       C  0.94473019  0.57930916  0.44244095     0.20800
C1127       C  0.93039786  0.59799261  0.48116765     0.18900
C1128       C  0.91533324  0.59945703  0.50137234    -0.17600
C1129       C  0.89985765  0.58421180  0.50355521    -0.19800
C1130       C  0.89920041  0.56718807  0.48562421     0.20400
C1131       C  0.88448119  0.55119101  0.48861496    -0.32800
C1132       C  0.88469404  0.53361077  0.47149943     0.01100
C1133       C  0.89908278  0.53263199  0.45040702    -0.24200
C1134       C  0.96101716  0.59371103  0.44158149    -0.28800
C1135       C  0.96244758  0.61000313  0.46059693     0.06800
C1136       C  0.94676712  0.61248871  0.47984497    -0.27400
H1137       H  0.95538775  0.56096549  0.40849664     0.11500
H1138       H  0.92838457  0.53427878  0.41238988     0.12600
H1139       H  0.91573195  0.61220283  0.51580014     0.11700
H1140       H  0.88862197  0.58553328  0.51960704     0.11000
H1141       H  0.87344443  0.55198952  0.50497650     0.16400
H1142       H  0.89924229  0.51916777  0.43708838     0.12300
H1143       H  0.97311219  0.59178129  0.42670879     0.15100
H1144       H  0.94799708  0.62487243  0.49474747     0.14900
C1145       C  0.04157193  0.22665894  0.52062753    -0.18000
C1146       C  0.04184710  0.24842483  0.52283986    -0.20100
C1147       C  0.02332469  0.25976941  0.52242001     0.20500
C1148       C  0.00433268  0.24910810  0.51967598    -0.03100
C1149       C  0.00406339  0.22710450  0.51727664    -0.06100
C1150       C  0.02277602  0.21584378  0.51782158     0.20800
C1151       C  0.98509414  0.21640162  0.51437081     0.18900
C1152       C  0.96657189  0.22776828  0.51407357    -0.17600
C1153       C  0.96683308  0.24955064  0.51662080    -0.19800
C1154       C  0.98562794  0.26040436  0.51937915     0.20400
C1155       C  0.98605236  0.28230360  0.52193070    -0.32800
C1156       C  0.00497466  0.29308872  0.52475763     0.01100
C1157       C  0.02352042  0.28157571  0.52484227    -0.24200
C1158       C  0.02239885  0.19398767  0.51555813    -0.28800
C1159       C  0.00355350  0.18311543  0.51254900     0.06800
C1160       C  0.98496102  0.19454180  0.51189670    -0.27400
H1161       H  0.05608590  0.21827980  0.52108366     0.11500
H1162       H  0.05657240  0.25639223  0.52496178     0.12600
H1163       H  0.95185153  0.21979973  0.51191731     0.11700
H1164       H  0.95231103  0.25791519  0.51639220     0.11000
H1165       H  0.97165320  0.29089017  0.52190174     0.16400
H1166       H  0.03824799  0.28954731  0.52693587     0.12300
H1167       H  0.03684181  0.18547748  0.51603841     0.15100
H1168       H  0.97031149  0.18644447  0.50967596     0.14900
C1169       C  0.10819933  0.38028927  0.49672326    -0.18000
C1170       C  0.09328874  0.36483177  0.50135083    -0.20100
C1171       C  0.07781327  0.36790249  0.52068861     0.20500
C1172       C  0.07782827  0.38643981  0.53621901    -0.03100
C1173       C  0.09290949  0.40199917  0.53161203    -0.06100
C1174       C  0.10794611  0.39906339  0.51142298     0.20800
C1175       C  0.09238831  0.42084679  0.54642181     0.18900
C1176       C  0.07727170  0.42370506  0.56628468    -0.17600
C1177       C  0.06223560  0.40838620  0.57068021    -0.19800
C1178       C  0.06214057  0.38992394  0.55536937     0.20400
C1179       C  0.04591064  0.37552769  0.55762872    -0.32800
C1180       C  0.04510422  0.35772828  0.54097601     0.01100
C1181       C  0.06158903  0.35343788  0.52352627    -0.24200
C1182       C  0.12197664  0.41523094  0.50566834    -0.28800
C1183       C  0.12101856  0.43433995  0.51969389     0.06800
C1184       C  0.10649063  0.43681787  0.54045249    -0.27400
H1185       H  0.11966479  0.37774368  0.48120733     0.11500
H1186       H  0.09351126  0.35072032  0.48924658     0.12600
H1187       H  0.07673318  0.43804262  0.57791441     0.11700
H1188       H  0.05033290  0.41123702  0.58553717     0.11000
H1189       H  0.03316618  0.37882549  0.57111026     0.16400
H1190       H  0.06084710  0.33984487  0.51045480     0.12300
H1191       H  0.13316011  0.41320201  0.48966182     0.15100
H1192       H  0.10572653  0.45145499  0.55143576     0.14900
C1193       C  0.94469657  0.43415958  0.53467940    -0.18000
C1194       C  0.96065010  0.41981490  0.53807502    -0.20100
C1195       C  0.95771371  0.39880055  0.53096132     0.20500
C1196       C  0.93862761  0.39209326  0.52017194    -0.03100
C1197       C  0.92247974  0.40663674  0.51665706    -0.06100
C1198       C  0.92558399  0.42772988  0.52402915     0.20800
C1199       C  0.90335049  0.40014905  0.50560490     0.18900
C1200       C  0.90056336  0.37910293  0.49831843    -0.17600
C1201       C  0.91659548  0.36464730  0.50188871    -0.19800
C1202       C  0.93573357  0.37094216  0.51281615     0.20400
C1203       C  0.95206074  0.35660273  0.51640596    -0.32800
C1204       C  0.97118934  0.36329939  0.52720463     0.01100
C1205       C  0.97367203  0.38447239  0.53444252    -0.24200
C1206       C  0.90967048  0.44215558  0.52026169    -0.28800
C1207       C  0.89070084  0.43599133  0.50879785     0.06800
C1208       C  0.88753288  0.41490236  0.50169667    -0.27400
H1209       H  0.94733768  0.45031362  0.54029678     0.11500
H1210       H  0.97531274  0.42516554  0.54628711     0.12600
H1211       H  0.88599652  0.37382797  0.48976315     0.11700
H1212       H  0.91402703  0.34853304  0.49603777     0.11000
H1213       H  0.94996708  0.34042268  0.51052778     0.16400
H1214       H  0.98820306  0.39003765  0.54282359     0.12300
H1215       H  0.91227221  0.45836901  0.52567587     0.15100
H1216       H  0.87292956  0.41006029  0.49279625     0.14900
C1217       C  0.72671463  0.93295459  0.90576010    -0.18000
C1218       C  0.73501004  0.92369239  0.88261344    -0.20100
C1219       C  0.72888670  0.93037662  0.85678273     0.20500
C1220       C  0.71447238  0.94672240  0.85424003    -0.03100
C1221       C  0.70621909  0.95617232  0.87760096    -0.06100
C1222       C  0.71222461  0.94910747  0.90349253     0.20800
C1223       C  0.69163356  0.97235903  0.87503315     0.18900
C1224       C  0.68560204  0.97912819  0.84921624    -0.17600
C1225       C  0.69367322  0.96967512  0.82608343    -0.19800
C1226       C  0.70798543  0.95337505  0.82835601     0.20400
C1227       C  0.71565385  0.94337228  0.80524428    -0.32800
C1228       C  0.72987872  0.92695616  0.80764852     0.01100
C1229       C  0.73663377  0.92073368  0.83347892    -0.24200
C1230       C  0.70321104  0.95794533  0.92657721    -0.28800
C1231       C  0.68825292  0.97370806  0.92409700     0.06800
C1232       C  0.68287260  0.98111472  0.89827209    -0.27400
H1233       H  0.73149764  0.92733009  0.92546952     0.11500
H1234       H  0.74603730  0.91114022  0.88490748     0.12600
H1235       H  0.67442019  0.99153654  0.84691810     0.11700
H1236       H  0.68856468  0.97500665  0.80637729     0.11000
H1237       H  0.71038866  0.94822129  0.78538484     0.16400
H1238       H  0.74748271  0.90797933  0.83547697     0.12300
H1239       H  0.70739771  0.95212615  0.94643042     0.15100
H1240       H  0.67131470  0.99320428  0.89619186     0.14900
C1241       C  0.80924600  0.96358879  0.65889533    -0.18000
C1242       C  0.81898506  0.97201200  0.63625096    -0.20100
C1243       C  0.81229931  0.96658417  0.61012372     0.20500
C1244       C  0.79561368  0.95254711  0.60675689    -0.03100
C1245       C  0.78573064  0.94408666  0.62964151    -0.06100
C1246       C  0.79262912  0.94964425  0.65581986     0.20800
C1247       C  0.76916125  0.92989941  0.62634517     0.18900
C1248       C  0.76262528  0.92430159  0.60018216    -0.17600
C1249       C  0.77244150  0.93267080  0.57749218    -0.19800
C1250       C  0.78895471  0.94677985  0.58054834     0.20400
C1251       C  0.79913018  0.95500574  0.55792756    -0.32800
C1252       C  0.81588354  0.96889159  0.56118029     0.01100
C1253       C  0.82223551  0.97473483  0.58735061    -0.24200
C1254       C  0.78304187  0.94089025  0.67846218    -0.28800
C1255       C  0.76669334  0.92655844  0.67539070     0.06800
C1256       C  0.75968225  0.92128315  0.64924752    -0.27400
H1257       H  0.81478197  0.96793656  0.67886602     0.11500
H1258       H  0.83182216  0.98269232  0.63916913     0.12600
H1259       H  0.74999466  0.91337186  0.59727142     0.11700
H1260       H  0.76716197  0.92802242  0.55751927     0.11000
H1261       H  0.79420296  0.95035214  0.53779687     0.16400
H1262       H  0.83520302  0.98530929  0.59002200     0.12300
H1263       H  0.78865785  0.94488464  0.69853019     0.15100
H1264       H  0.74724707  0.91006067  0.64671245     0.14900
C1265       C  0.67232649  0.78475109  0.78241394    -0.18000
C1266       C  0.68720915  0.80060717  0.78212905    -0.20100
C1267       C  0.68559844  0.81711886  0.76369956     0.20500
C1268       C  0.66857220  0.81794803  0.74576537    -0.03100
C1269       C  0.65342302  0.80197804  0.74618985    -0.06100
C1270       C  0.65553998  0.78516965  0.76432949     0.20800
C1271       C  0.63647541  0.80255120  0.72805576     0.18900
C1272       C  0.63474758  0.81930891  0.70993813    -0.17600
C1273       C  0.64982661  0.83509481  0.70942849    -0.19800
C1274       C  0.66689864  0.83448638  0.72709928     0.20400
C1275       C  0.68244595  0.84992407  0.72625383    -0.32800
C1276       C  0.69957373  0.84900632  0.74392472     0.01100
C1277       C  0.70089011  0.83263094  0.76269923    -0.24200
C1278       C  0.64122802  0.76871237  0.76352865    -0.28800
C1279       C  0.62464149  0.76876154  0.74500480     0.06800
C1280       C  0.62199416  0.78602835  0.72780933    -0.27400
H1281       H  0.67410595  0.77198831  0.79654362     0.11500
H1282       H  0.70015079  0.79979870  0.79609549     0.12600
H1283       H  0.62187837  0.82005258  0.69586027     0.11700
H1284       H  0.64822856  0.84769075  0.69501527     0.11000
H1285       H  0.68130229  0.86251973  0.71175249     0.16400
H1286       H  0.71400974  0.83178372  0.77639456     0.12300
H1287       H  0.64326787  0.75552761  0.77696568     0.15100
H1288       H  0.60933031  0.78608244  0.71335938     0.14900
C1289       C  0.81898004  0.49662551  0.63105569    -0.18000
C1290       C  0.81096436  0.50603143  0.65428123    -0.20100
C1291       C  0.79679029  0.52248831  0.65214707     0.20500
C1292       C  0.79075285  0.52961737  0.62629268    -0.03100
C1293       C  0.79883419  0.52012749  0.60286240    -0.06100
C1294       C  0.81296025  0.50352249  0.60528882     0.20800
C1295       C  0.79287869  0.52736752  0.57702975     0.18900
C1296       C  0.77905998  0.54410294  0.57487498    -0.17600
C1297       C  0.77103835  0.55348398  0.59807550    -0.19800
C1298       C  0.77669501  0.54627563  0.62383036     0.20400
C1299       C  0.76855079  0.55550455  0.64713142    -0.32800
C1300       C  0.77435450  0.54846640  0.67296842     0.01100
C1301       C  0.78858445  0.53200317  0.67534316    -0.24200
C1302       C  0.82107558  0.49431216  0.58193718    -0.28800
C1303       C  0.81535941  0.50156050  0.55615760     0.06800
C1304       C  0.80110761  0.51796714  0.55385005    -0.27400
H1305       H  0.82990944  0.48397287  0.63324321     0.11500
H1306       H  0.81585217  0.50040951  0.67393902     0.12600
H1307       H  0.77444752  0.54995736  0.55521498     0.11700
H1308       H  0.76037126  0.56636268  0.59587938     0.11000
H1309       H  0.75782589  0.56836698  0.64513599     0.16400
H1310       H  0.79327939  0.52662368  0.69520605     0.12300
H1311       H  0.83220671  0.48180242  0.58385480     0.15100
H1312       H  0.79682344  0.52378740  0.53403290     0.14900
C1313       C  0.74190765  0.54766862  0.87994313    -0.18000
C1314       C  0.73276217  0.53931592  0.90304949    -0.20100
C1315       C  0.71711011  0.52420078  0.90078145     0.20500
C1316       C  0.71102987  0.51692117  0.87496361    -0.03100
C1317       C  0.72021338  0.52544537  0.85157398    -0.06100
C1318       C  0.73551222  0.54108538  0.85413655     0.20800
C1319       C  0.71365131  0.51878389  0.82566780     0.18900
C1320       C  0.69853565  0.50306644  0.82346796    -0.17600
C1321       C  0.68951308  0.49452642  0.84666328    -0.19800
C1322       C  0.69538531  0.50161409  0.87251411     0.20400
C1323       C  0.68550360  0.49415243  0.89588717    -0.32800
C1324       C  0.69096080  0.50200417  0.92162675     0.01100
C1325       C  0.70705308  0.51670929  0.92384914    -0.24200
C1326       C  0.74372064  0.55037772  0.83091665    -0.28800
C1327       C  0.73665835  0.54452550  0.80504029     0.06800
C1328       C  0.72188536  0.52841427  0.80253749    -0.27400
H1329       H  0.75370196  0.55958723  0.88224740     0.11500
H1330       H  0.73769963  0.54496895  0.92273792     0.12600
H1331       H  0.69341090  0.49762020  0.80376360     0.11700
H1332       H  0.67764336  0.48268552  0.84436302     0.11000
H1333       H  0.67314276  0.48278058  0.89397293     0.16400
H1334       H  0.71144115  0.52275302  0.94357383     0.12300
H1335       H  0.75506679  0.56276473  0.83306127     0.15100
H1336       H  0.71639103  0.52376866  0.78265241     0.14900
C1337       C  0.66471015  0.67475625  0.78878096    -0.18000
C1338       C  0.68070904  0.66019153  0.78813570    -0.20100
C1339       C  0.68220567  0.64598011  0.76663911     0.20500
C1340       C  0.66704804  0.64596760  0.74599341    -0.03100
C1341       C  0.65086716  0.66076297  0.74660294    -0.06100
C1342       C  0.64998898  0.67542648  0.76787011     0.20800
C1343       C  0.63614957  0.66149092  0.72538999     0.18900
C1344       C  0.63736376  0.64679649  0.70432138    -0.17600
C1345       C  0.65332435  0.63201207  0.70383031    -0.19800
C1346       C  0.66846456  0.63167880  0.72432517     0.20400
C1347       C  0.68526525  0.61773587  0.72323564    -0.32800
C1348       C  0.70074432  0.61813584  0.74341229     0.01100
C1349       C  0.69888603  0.63214726  0.76517340    -0.24200
C1350       C  0.63516127  0.69127254  0.76714318    -0.28800
C1351       C  0.62124135  0.69295075  0.74535523     0.06800
C1352       C  0.62125007  0.67756272  0.72497890    -0.27400
H1353       H  0.66417648  0.68588174  0.80528585     0.11500
H1354       H  0.69216189  0.66031534  0.80421697     0.12600
H1355       H  0.62622132  0.64702006  0.68788693     0.11700
H1356       H  0.65407505  0.62111769  0.68708774     0.11000
H1357       H  0.68655233  0.60696214  0.70641351     0.16400
H1358       H  0.71064777  0.63252786  0.78088348     0.12300
H1359       H  0.63519097  0.70312545  0.78283798     0.15100
H1360       H  0.61071161  0.67895090  0.70796467     0.14900
C1361       C  0.86367885  0.82643041  0.77334240    -0.18000
C1362       C  0.84751905  0.84091035  0.77456515    -0.20100
C1363       C  0.83170771  0.84075319  0.75497305     0.20500
C1364       C  0.83244553  0.82611929  0.73362680    -0.03100
C1365       C  0.84877284  0.81160347  0.73231917    -0.06100
C1366       C  0.86435944  0.81155848  0.75247369     0.20800
C1367       C  0.84902248  0.79659810  0.71142413     0.18900
C1368       C  0.83339194  0.79652991  0.69164786    -0.17600
C1369       C  0.81727707  0.81091048  0.69291316    -0.19800
C1370       C  0.81655132  0.82557276  0.71396094     0.20400
C1371       C  0.79996965  0.83940867  0.71591961    -0.32800
C1372       C  0.79892189  0.85385179  0.73725847     0.01100
C1373       C  0.81496606  0.85464579  0.75659027    -0.24200
C1374       C  0.87963759  0.79595078  0.75215610    -0.28800
C1375       C  0.87910648  0.78028340  0.73224379     0.06800
C1376       C  0.86423683  0.78117992  0.71146008    -0.27400
H1377       H  0.87544656  0.82661907  0.78902239     0.11500
H1378       H  0.84721629  0.85202594  0.79109064     0.12600
H1379       H  0.83339537  0.78506299  0.67551733     0.11700
H1380       H  0.80518974  0.81034322  0.67765576     0.11000
H1381       H  0.78770843  0.83876186  0.70088728     0.16400
H1382       H  0.81423178  0.86577061  0.77309214     0.12300
H1383       H  0.89088862  0.79505655  0.76843958     0.15100
H1384       H  0.86378349  0.76902130  0.69616520     0.14900
C1385       C  0.80949326  0.67658526  0.70464017    -0.18000
C1386       C  0.82455288  0.69220890  0.70353729    -0.20100
C1387       C  0.84299440  0.69030443  0.71838121     0.20500
C1388       C  0.84649411  0.67241307  0.73422617    -0.03100
C1389       C  0.83125096  0.65660037  0.73534129    -0.06100
C1390       C  0.81265635  0.65880270  0.72056513     0.20800
C1391       C  0.83448974  0.63875726  0.75145889     0.18900
C1392       C  0.85306833  0.63685454  0.76609191    -0.17600
C1393       C  0.86817177  0.65258956  0.76505481    -0.19800
C1394       C  0.86501786  0.67051291  0.74931453     0.20400
C1395       C  0.87970853  0.68683150  0.74898067    -0.32800
C1396       C  0.87586415  0.70502581  0.73395717     0.01100
C1397       C  0.85769853  0.70631430  0.71821768    -0.24200
C1398       C  0.79745340  0.64327135  0.72205320    -0.28800
C1399       C  0.80043385  0.62547376  0.73813007     0.06800
C1400       C  0.81903276  0.62326103  0.75276432    -0.27400
H1401       H  0.79530030  0.67847916  0.69317040     0.11500
H1402       H  0.82167309  0.70590601  0.69130511     0.12600
H1403       H  0.85585594  0.62325870  0.77853420     0.11700
H1404       H  0.88224988  0.65082216  0.77678578     0.11000
H1405       H  0.89357730  0.68579213  0.76129825     0.16400
H1406       H  0.85466218  0.72018097  0.70634086     0.12300
H1407       H  0.78318177  0.64512245  0.71071548     0.15100
H1408       H  0.82144678  0.60955391  0.76515228     0.14900
C1409       C  0.30238571  0.96751630  0.83479450    -0.18000
C1410       C  0.31048472  0.97643957  0.85846235    -0.20100
C1411       C  0.30490991  0.96860383  0.88387580     0.20500
C1412       C  0.29080533  0.95181691  0.88547149    -0.03100
C1413       C  0.28254954  0.94287615  0.86157690    -0.06100
C1414       C  0.28850725  0.95066561  0.83610629     0.20800
C1415       C  0.26863059  0.92593106  0.86317198     0.18900
C1416       C  0.26287608  0.91825398  0.88859372    -0.17600
C1417       C  0.27113771  0.92703425  0.91224718    -0.19800
C1418       C  0.28524312  0.94368030  0.91091859     0.20400
C1419       C  0.29424657  0.95201370  0.93451084    -0.32800
C1420       C  0.30864692  0.96845271  0.93302330     0.01100
C1421       C  0.31358825  0.97693023  0.90765600    -0.24200
C1422       C  0.28073202  0.94124935  0.81244277    -0.28800
C1423       C  0.26709778  0.92413081  0.81388519     0.06800
C1424       C  0.26097107  0.91670875  0.83935103    -0.27400
H1425       H  0.30711689  0.97371087  0.81541805     0.11500
H1426       H  0.32130063  0.98931089  0.85688361     0.12600
H1427       H  0.25216882  0.90529393  0.89017175     0.11700
H1428       H  0.26664256  0.92064061  0.93161101     0.11000
H1429       H  0.29036677  0.94541033  0.95399860     0.16400
H1430       H  0.32475055  0.98953160  0.90633563     0.12300
H1431       H  0.28560311  0.94701084  0.79289097     0.15100
H1432       H  0.25052844  0.90349692  0.84064340     0.14900
C1433       C  0.22595457  0.93178201  0.58097994    -0.18000
C1434       C  0.23620431  0.92446089  0.60399714    -0.20100
C1435       C  0.22983508  0.93067014  0.62983817     0.20500
C1436       C  0.21337684  0.94489606  0.63252046    -0.03100
C1437       C  0.20312657  0.95243817  0.60923362    -0.06100
C1438       C  0.20927424  0.94555645  0.58338833     0.20800
C1439       C  0.18643232  0.96640008  0.61182398     0.18900
C1440       C  0.18039201  0.97298740  0.63769119    -0.17600
C1441       C  0.19041540  0.96533146  0.66079655    -0.19800
C1442       C  0.20674838  0.95107378  0.65845953     0.20400
C1443       C  0.21610101  0.94230282  0.68150545    -0.32800
C1444       C  0.23198224  0.92746588  0.67889181     0.01100
C1445       C  0.23914469  0.92223558  0.65299429    -0.24200
C1446       C  0.19842518  0.95225094  0.56041727    -0.28800
C1447       C  0.18157403  0.96587495  0.56279096     0.06800
C1448       C  0.17582880  0.97315079  0.58855255    -0.27400
H1449       H  0.23092173  0.92644006  0.56126501     0.11500
H1450       H  0.24884004  0.91359124  0.60160725     0.12600
H1451       H  0.16767186  0.98376146  0.64007169     0.11700
H1452       H  0.18516802  0.97032841  0.68053877     0.11000
H1453       H  0.21049937  0.94644249  0.70141868     0.16400
H1454       H  0.25137341  0.91086177  0.65079382     0.12300
H1455       H  0.20299639  0.94665564  0.54063996     0.14300
H1456       H  0.16286314  0.98369078  0.59053156     0.14900
C1457       C  0.51514921  0.77433202  0.73192309    -0.18000
C1458       C  0.49355457  0.77565761  0.73131103    -0.20100
C1459       C  0.48136440  0.75754422  0.72939778     0.20500
C1460       C  0.49107844  0.73788147  0.72806906    -0.03100
C1461       C  0.51293308  0.73653957  0.72870415    -0.06100
C1462       C  0.52499445  0.75486127  0.73069018     0.20800
C1463       C  0.52268052  0.71688638  0.72760617     0.18900
C1464       C  0.51046150  0.69876892  0.72562424    -0.17600
C1465       C  0.48883714  0.70009485  0.72496586    -0.19800
C1466       C  0.47898064  0.71956746  0.72628131     0.20400
C1467       C  0.45727535  0.72103824  0.72593400    -0.32800
C1468       C  0.44739270  0.74061949  0.72721530     0.01100
C1469       C  0.45966218  0.75878942  0.72888513    -0.24200
C1470       C  0.54666558  0.75343424  0.73181183    -0.28800
C1471       C  0.55664602  0.73389200  0.73125763     0.06800
C1472       C  0.54441968  0.71568038  0.72888261    -0.27400
H1473       H  0.52416411  0.78857011  0.73350078     0.11500
H1474       H  0.48638011  0.79088404  0.73239359     0.12600
H1475       H  0.51763232  0.68353263  0.72473019     0.11700
H1476       H  0.47981024  0.68585337  0.72353985     0.11000
H1477       H  0.44809722  0.70688616  0.72455900     0.16400
H1478       H  0.45234453  0.77394628  0.73005206     0.12300
H1479       H  0.55572422  0.76762903  0.73365164     0.15100
H1480       H  0.55176868  0.70051685  0.72840065     0.14900
C1481       C  0.35505690  0.84601190  0.75608976    -0.18000
C1482       C  0.37104167  0.83136609  0.75408912    -0.20100
C1483       C  0.36928228  0.81430736  0.73633118     0.20500
C1484       C  0.35126801  0.81222093  0.72017786    -0.03100
C1485       C  0.33502375  0.82679938  0.72250371    -0.06100
C1486       C  0.33689607  0.84376386  0.74058619     0.20800
C1487       C  0.31668384  0.82405606  0.70722873     0.18900
C1488       C  0.31488690  0.80708151  0.68941965    -0.17600
C1489       C  0.33100627  0.79278545  0.68693029    -0.19800
C1490       C  0.34912257  0.79512349  0.70239326     0.20400
C1491       C  0.36459329  0.77998183  0.70143964    -0.32800
C1492       C  0.38195904  0.78118958  0.71859439     0.01100
C1493       C  0.38462940  0.79872942  0.73540083    -0.24200
C1494       C  0.32038114  0.85784832  0.74327846    -0.28800
C1495       C  0.30188996  0.85492262  0.72848268     0.06800
C1496       C  0.30027947  0.83806970  0.71037433    -0.27400
H1497       H  0.35675501  0.85891749  0.77012849     0.11500
H1498       H  0.38467336  0.83323665  0.76671568     0.12600
H1499       H  0.30090784  0.80473580  0.67759304     0.11700
H1500       H  0.32912338  0.77963619  0.67331565     0.11000
H1501       H  0.36243315  0.76634366  0.68867741     0.16400
H1502       H  0.39777309  0.79946473  0.74907985     0.12300
H1503       H  0.32170020  0.87073302  0.75743175     0.15100
H1504       H  0.28609419  0.83566142  0.69897563     0.14900
C1505       C  0.00876550  0.70187360  0.75150104    -0.18000
C1506       C  0.98708127  0.70209917  0.75081741    -0.20100
C1507       C  0.97626627  0.72107249  0.75111395     0.20500
C1508       C  0.98747702  0.73997823  0.75254730    -0.03100
C1509       C  0.00938002  0.73974941  0.75325987    -0.06100
C1510       C  0.02010215  0.72061608  0.75253895     0.20800
C1511       C  0.02052092  0.75869317  0.75446617     0.18900
C1512       C  0.00973341  0.77765286  0.75519438    -0.17600
C1513       C  0.98810953  0.77788025  0.75443500    -0.19800
C1514       C  0.97683742  0.75915243  0.75292864     0.20400
C1515       C  0.95514960  0.75934393  0.75129102    -0.32800
C1516       C  0.94374379  0.74061621  0.74909467     0.01100
C1517       C  0.95450623  0.72149249  0.74948612    -0.24200
C1518       C  0.04191924  0.72057992  0.75282062    -0.28800
C1519       C  0.05322595  0.73946245  0.75400684     0.06800
C1520       C  0.04224140  0.75842406  0.75485651    -0.27400
H1521       H  0.01667787  0.68700832  0.75106089     0.11500
H1522       H  0.97876748  0.68740689  0.74980675     0.12600
H1523       H  0.01803664  0.79235154  0.75619711     0.11700
H1524       H  0.98019635  0.79274908  0.75480549     0.11000
H1525       H  0.94720303  0.77420055  0.75117963     0.16400
H1526       H  0.94602505  0.70692261  0.74789048     0.12300
H1527       H  0.05005589  0.70583775  0.75226388     0.15100
H1528       H  0.05058197  0.77310925  0.75571030     0.14900
C1529       C  0.12933217  0.82974194  0.73487911    -0.18000
C1530       C  0.14533597  0.84449770  0.73291328    -0.20100
C1531       C  0.16409838  0.84162805  0.74688078     0.20500
C1532       C  0.16646097  0.82404696  0.76369619    -0.03100
C1533       C  0.15026983  0.80924516  0.76582791    -0.06100
C1534       C  0.13174038  0.81184806  0.75091445     0.20800
C1535       C  0.15302958  0.79135873  0.78194771     0.18900
C1536       C  0.17148183  0.78876241  0.79658675    -0.17600
C1537       C  0.18748080  0.80336052  0.79443786    -0.19800
C1538       C  0.18527461  0.82084658  0.77770149     0.20400
C1539       C  0.20173117  0.83490225  0.77430664    -0.32800
C1540       C  0.19969754  0.85228049  0.75725258     0.01100
C1541       C  0.18069763  0.85571844  0.74388461    -0.24200
C1542       C  0.11655849  0.79595081  0.75112385    -0.28800
C1543       C  0.12000871  0.77745935  0.76571684     0.06800
C1544       C  0.13785098  0.77574477  0.78192832    -0.27400
H1545       H  0.11524700  0.83209253  0.72334012     0.11500
H1546       H  0.14319076  0.85795053  0.72000002     0.12600
H1547       H  0.17376989  0.77512249  0.80912744     0.11700
H1548       H  0.20175890  0.80074695  0.80546884     0.11000
H1549       H  0.21624549  0.83217995  0.78477273     0.16400
H1550       H  0.17898839  0.86908035  0.73068746     0.12300
H1551       H  0.10292120  0.79725962  0.73840693     0.15100
H1552       H  0.14051213  0.76153970  0.79328201     0.14900
C1553       C  0.27198796  0.54852502  0.90935846    -0.18000
C1554       C  0.26335741  0.55725727  0.88598475    -0.20100
C1555       C  0.27113216  0.55212661  0.86039639     0.20500
C1556       C  0.28775960  0.53804727  0.85833441    -0.03100
C1557       C  0.29646612  0.52922308  0.88193632    -0.06100
C1558       C  0.28853367  0.53449097  0.90758883     0.20800
C1559       C  0.31317921  0.51525735  0.87986628     0.18900
C1560       C  0.32111878  0.51031391  0.85430232    -0.17600
C1561       C  0.31249944  0.51904856  0.83094068    -0.19800
C1562       C  0.29581640  0.53290516  0.83271419     0.20400
C1563       C  0.28724636  0.54194179  0.80938615    -0.32800
C1564       C  0.27082080  0.55618077  0.81131656     0.01100
C1565       C  0.26275010  0.56105733  0.83689803    -0.24200
C1566       C  0.29739978  0.52576108  0.93097523    -0.28800
C1567       C  0.31403870  0.51177077  0.92904293     0.06800
C1568       C  0.32178160  0.50657970  0.90337370    -0.27400
H1569       H  0.26572546  0.55279467  0.92886587     0.11500
H1570       H  0.25063929  0.56808727  0.88792702     0.12600
H1571       H  0.33401238  0.49969747  0.85237871     0.11700
H1572       H  0.31893939  0.51499688  0.81145551     0.11000
H1573       H  0.29364478  0.53820164  0.78976254     0.16400
H1574       H  0.25018063  0.57210506  0.83857419     0.12300
H1575       H  0.29145948  0.52998473  0.95068548     0.15100
H1576       H  0.33476162  0.49602929  0.90169700     0.14900
C1577       C  0.19112525  0.50013875  0.63624315    -0.18000
C1578       C  0.19981941  0.50951842  0.65924029    -0.20100
C1579       C  0.21339641  0.52652378  0.65676975     0.20500
C1580       C  0.21845490  0.53400687  0.63080997    -0.03100
C1581       C  0.20955364  0.52463116  0.60758679    -0.06100
C1582       C  0.19578316  0.50766352  0.61035630     0.20800
C1583       C  0.21418092  0.53245231  0.58165374     0.18900
C1584       C  0.22787649  0.54937229  0.57918932    -0.17600
C1585       C  0.23681077  0.55856263  0.60217740    -0.19800
C1586       C  0.23210916  0.55107661  0.62806962     0.20400
C1587       C  0.24043684  0.56068088  0.65126298    -0.32800
C1588       C  0.23497937  0.55370867  0.67721231     0.01100
C1589       C  0.22164762  0.53645678  0.67978156    -0.24200
C1590       C  0.18662191  0.49873979  0.58725507    -0.28800
C1591       C  0.19085690  0.50665188  0.56135500     0.06800
C1592       C  0.20479019  0.52342459  0.55871451    -0.27400
H1593       H  0.18057920  0.48712601  0.63871854     0.11500
H1594       H  0.19578404  0.50355920  0.67900624     0.12600
H1595       H  0.23160028  0.55559197  0.55945806     0.11700
H1596       H  0.24722698  0.57168114  0.59971831     0.11000
H1597       H  0.25060929  0.57403907  0.64911793     0.16400
H1598       H  0.21736204  0.53100998  0.69971743     0.12300
H1599       H  0.17582328  0.48589843  0.58950599     0.15100
H1600       H  0.20804814  0.52969230  0.53885566     0.14900
C1601       C  0.36828865  0.65346540  0.71344237    -0.18000
C1602       C  0.35266226  0.63832388  0.71472235    -0.20100
C1603       C  0.33479914  0.64186987  0.73000884     0.20500
C1604       C  0.33282541  0.66070070  0.74458457    -0.03100
C1605       C  0.34849931  0.67603063  0.74312372    -0.06100
C1606       C  0.36628489  0.67247103  0.72731698     0.20800
C1607       C  0.34608016  0.69514973  0.75687187     0.18900
C1608       C  0.32845367  0.69857340  0.77262668    -0.17600
C1609       C  0.31305481  0.68329713  0.77432846    -0.19800
C1610       C  0.31497177  0.66443564  0.76011667     0.20400
C1611       C  0.29914641  0.64944907  0.76070053    -0.32800
C1612       C  0.30075000  0.63089033  0.74564468     0.01100
C1613       C  0.31871363  0.62710492  0.73057149    -0.24200
C1614       C  0.38134148  0.68826102  0.72492996    -0.28800
C1615       C  0.37842926  0.70763383  0.73762121     0.06800
C1616       C  0.36099500  0.71079144  0.75392935    -0.27400
H1617       H  0.38178914  0.65044713  0.70121663     0.11500
H1618       H  0.35444743  0.62391493  0.70348876     0.12600
H1619       H  0.32644925  0.71318727  0.78335335     0.11700
H1620       H  0.29947666  0.68638260  0.78638689     0.11000
H1621       H  0.28535249  0.65246284  0.77239242     0.16400
H1622       H  0.32007424  0.61277739  0.71903617     0.12300
H1623       H  0.39465792  0.68592562  0.71209891     0.15100
H1624       H  0.35877864  0.72574834  0.76380120     0.14900
C1625       C  0.13088091  0.64910843  0.76794574    -0.18000
C1626       C  0.14670155  0.63417161  0.76743167    -0.20100
C1627       C  0.16533739  0.63825033  0.75395154     0.20500
C1628       C  0.16780139  0.65740075  0.74030086    -0.03100
C1629       C  0.15188142  0.67245763  0.74085748    -0.06100
C1630       C  0.13337039  0.66844272  0.75500777     0.20800
C1631       C  0.15477611  0.69178460  0.72787464     0.18900
C1632       C  0.17316770  0.69577070  0.71390861    -0.17600
C1633       C  0.18882987  0.68086304  0.71322970    -0.19800
C1634       C  0.18637884  0.66175057  0.72656891     0.20400
C1635       C  0.20238213  0.64712222  0.72678923    -0.32800
C1636       C  0.20034704  0.62822070  0.74086088     0.01100
C1637       C  0.18168986  0.62376048  0.75424152    -0.24200
C1638       C  0.11813189  0.68413855  0.75679806    -0.28800
C1639       C  0.12151073  0.70378486  0.74492277     0.06800
C1640       C  0.13960375  0.70716112  0.72990410    -0.27400
H1641       H  0.11682145  0.64566289  0.77886665     0.11500
H1642       H  0.14446001  0.61952176  0.77790658     0.12600
H1643       H  0.17557207  0.71056982  0.70384063     0.11700
H1644       H  0.20299673  0.68440967  0.70258484     0.11000
H1645       H  0.21669056  0.65071453  0.71646453     0.16400
H1646       H  0.17998460  0.60916679  0.76503416     0.12300
H1647       H  0.10433419  0.68152436  0.76864414     0.15100
H1648       H  0.14225624  0.72223925  0.72060346     0.14900
loop_ 
_geom_bond_atom_site_label_1 
_geom_bond_atom_site_label_2 
_geom_bond_distance 
_geom_bond_site_symmetry_2 
_ccdc_geom_bond_type 
In1           O3   2.231       .  S
In1           O4   2.269       .  S
In1          O12   2.252       .  S
In1           O6   2.247       .  S
In1           O8   2.254       .  S
In1           O9   2.247       .  S
In1          O10   2.240       .  S
In1          O13   2.254       .  S
C2            O8   1.263       .  A
C2           O10   1.260       .  A
C2         C1612   1.478       .  S
O3           C11   1.260       .  A
O4           C11   1.263       .  A
C5           O12   1.262       .  A
C5            O6   1.261       .  A
C5         C1588   1.480       .  S
C7            O9   1.261       .  A
C7           O13   1.261       .  A
C7         C1564   1.481       .  S
C11        C1636   1.482       .  S
C14        C1519   1.498       .  S
C14          N15   1.372       .  A
C14          N19   1.370       .  A
N15          C16   1.364       .  A
C16        C1639   1.483       .  S
C16          N17   1.352       .  A
N17          C18   1.350       .  A
C18        C1543   1.481       .  S
C18          N19   1.360       .  A
C20        C1468   1.493       .  S
C20          N21   1.371       .  A
C20          N25   1.367       .  A
N21          C22   1.362       .  A
C22        C1492   1.475       .  S
C22          N23   1.349       .  A
N23          C24   1.348       .  A
C24        C1615   1.473       .  S
C24          N25   1.359       .  A
In26         O28   2.256       .  S
In26         O29   2.251       .  S
In26         O37   2.257       .  S
In26         O31   2.249       .  S
In26         O33   2.257       .  S
In26         O34   2.267       .  S
In26         O35   2.261       .  S
In26         O38   2.262       .  S
C27          O33   1.262       .  A
C27          O35   1.259       .  A
C27        C1495   1.483       .  S
O28          C36   1.261       .  A
O29          C36   1.261       .  A
C30          O37   1.261       .  A
C30          O31   1.262       .  A
C30        C1444   1.482       .  S
C32          O34   1.258       .  A
C32          O38   1.261       .  A
C32        C1540   1.485       .  S
C36        C1423   1.482       .  S
C39        C1516   1.495       .  S
C39          N40   1.369       .  A
C39          N44   1.370       .  A
N40          C41   1.359       .  A
C41        C1375   1.474       .  S
C41          N42   1.348       .  A
N42          C43   1.350       .  A
C43        C1396   1.482       .  S
C43          N44   1.363       .  A
In45         O47   2.263       .  S
In45         O48   2.241       .  S
In45         O56   2.260       .  S
In45         O50   2.242       .  S
In45         O52   2.272       .  S
In45         O53   2.271       .  S
In45         O54   2.231       .  S
In45         O57   2.235       .  S
C46          O52   1.263       .  A
C46          O54   1.259       .  A
C46        C1399   1.481       .  S
O47          C55   1.261       .  A
O48          C55   1.260       .  A
C49          O56   1.263       .  A
C49          O50   1.262       .  A
C49        C1327   1.483       .  S
C51          O53   1.264       .  A
C51          O57   1.261       .  A
C51        C1348   1.485       .  S
C55        C1300   1.481       .  S
C58        C1471   1.497       .  S
C58          N59   1.370       .  A
C58          N63   1.368       .  A
N59          C60   1.363       .  A
C60        C1351   1.481       .  S
C60          N61   1.355       .  A
N61          C62   1.353       .  A
C62        C1279   1.484       .  S
C62          N63   1.360       .  A
In64         O66   2.234       .  S
In64         O67   2.265       .  S
In64         O75   2.255       .  S
In64         O69   2.240       .  S
In64         O71   2.262       .  S
In64         O72   2.252       .  S
In64         O73   2.227       .  S
In64         O76   2.245       .  S
C65          O71   1.262       .  A
C65          O73   1.260       .  A
C65        C1372   1.477       .  S
O66          C74   1.261       .  A
O67          C74   1.263       .  A
C68          O75   1.263       .  A
C68          O69   1.260       .  A
C68        C1228   1.478       .  S
C70          O72   1.261       .  A
C70          O76   1.261       .  A
C70        C1255   1.479       .  S
C74        C1276   1.482       .  S
C77        C1156   1.492       .  S
C77          N78   1.371   1_455  A
C77          N82   1.365       .  A
N78          C79   1.366       .  A
C79        C1204   1.490       .  S
C79          N80   1.353   1_655  A
N80          C81   1.348       .  A
C81        C1180   1.473       .  S
C81          N82   1.355       .  A
In83         O85   2.250       .  S
In83         O86   2.236       .  S
In83         O94   2.261       .  S
In83         O88   2.234       .  S
In83         O90   2.249       .  S
In83         O91   2.238       .  S
In83         O92   2.255       .  S
In83         O95   2.264       .  S
C84          O90   1.261       .  A
C84          O92   1.259       .  A
C84        C1132   1.478       .  S
O85          C93   1.262       .  A
O86          C93   1.260       .  A
C87          O94   1.262       .  A
C87          O88   1.259       .  A
C87        C1108   1.478       .  S
C89          O91   1.260       .  A
C89          O95   1.260       .  A
C89        C1207   1.479       .  S
C93        C1303   1.476       .  S
C96        C1063   1.494       .  S
C96          N97   1.367   1_455  A
C96         N101   1.370       .  A
N97          C98   1.358       .  A
C98        C1135   1.476       .  S
C98          N99   1.349       .  A
N99         C100   1.353   1_655  A
C100       C1087   1.485       .  S
C100        N101   1.364       .  A
In102       O104   2.245       .  S
In102       O105   2.261       .  S
In102       O113   2.262       .  S
In102       O107   2.257       .  S
In102       O109   2.251       .  S
In102       O110   2.248       .  S
In102       O111   2.265       .  S
In102       O114   2.266       .  S
C103        O109   1.260       .  A
C103        O111   1.259       .  A
C103       C1084   1.481       .  S
O104        C112   1.261       .  A
O105        C112   1.261       .  A
C106        O113   1.262       .  A
C106        O107   1.260       .  A
C106       C1039   1.485       .  S
C108        O110   1.259       .  A
C108        O114   1.262       .  A
C108       C1591   1.483       .  S
C112       C1183   1.480       .  S
C115       C1060   1.494       .  S
C115        N116   1.367       .  A
C115        N120   1.371   1_655  A
N116        C117   1.355       .  A
C117       C1015   1.467       .  S
C117        N118   1.346       .  A
N118        C119   1.354   1_655  A
C119        C988   1.488       .  S
C119        N120   1.366       .  A
C121       C1159   1.491       .  S
C121        N122   1.366   1_455  A
C121        N126   1.367       .  A
N122        C123   1.359       .  A
C123        C964   1.473       .  S
C123        N124   1.352   1_655  A
N124        C125   1.352       .  A
C125        C943   1.474       .  S
C125        N126   1.360       .  A
In127       O129   2.265       .  S
In127       O130   2.248       .  S
In127       O138   2.249       .  S
In127       O132   2.258       .  S
In127       O134   2.259   1_565  S
In127       O135   2.237       .  S
In127       O136   2.247       .  S
In127       O139   2.276       .  S
C128        O134   1.263       .  A
C128        O136   1.261   1_545  A
C128        C940   1.482       .  S
O129        C137   1.262       .  A
O130        C137   1.259       .  A
C131        O138   1.261       .  A
C131        O132   1.259       .  A
C131       C1447   1.480       .  S
C133        O135   1.258       .  A
C133        O139   1.260       .  A
C133        C991   1.481       .  S
C137        C919   1.482       .  S
In140       O142   2.260       .  S
In140       O143   2.238       .  S
In140       O151   2.247       .  S
In140       O145   2.247       .  S
In140       O147   2.272   1_565  S
In140       O148   2.230       .  S
In140       O149   2.246   1_565  S
In140       O152   2.255   1_565  S
C141        O147   1.261       .  A
C141        O149   1.258       .  A
C141        C967   1.483       .  S
O142        C150   1.262       .  A
O143        C150   1.261       .  A
C144        O151   1.261       .  A
C144        O145   1.263       .  A
C144       C1252   1.480       .  S
C146        O148   1.260       .  A
C146        O152   1.262   1_565  A
C146        C892   1.477   1_565  S
C150       C1012   1.479       .  S
C153        C820   1.492       .  S
C153        N154   1.370       .  A
C153        N158   1.367       .  A
N154        C155   1.362       .  A
C155        C847   1.483   1_554  S
C155        N156   1.352   1_554  A
N156        C157   1.352   1_556  A
C157        C868   1.478   1_554  S
C157        N158   1.358       .  A
In159       O161   2.265   1_556  S
In159       O162   2.253   1_556  S
In159       O170   2.254       .  S
In159       O164   2.264       .  S
In159       O166   2.257       .  S
In159       O167   2.284   1_556  S
In159       O168   2.239   1_556  S
In159       O171   2.244       .  S
C160        O166   1.263       .  A
C160        O168   1.261   1_556  A
C160        C799   1.481       .  S
O161        C169   1.262       .  A
O162        C169   1.261       .  A
C163        O170   1.262       .  A
C163        O164   1.260       .  A
C163       C1324   1.485       .  S
C165        O167   1.261   1_556  A
C165        O171   1.259       .  A
C165        C844   1.486       .  S
C169        C772   1.485       .  S
C172        C724   1.493       .  S
C172        N173   1.366       .  A
C172        N177   1.366       .  A
N173        C174   1.358       .  A
C174        C796   1.472       .  S
C174        N175   1.353       .  A
N175        C176   1.354       .  A
C176        C748   1.475       .  S
C176        N177   1.361       .  A
In178       O180   2.226       .  S
In178       O181   2.267   1_556  S
In178       O189   2.267       .  S
In178       O183   2.246       .  S
In178       O185   2.269       .  S
In178       O186   2.252   1_556  S
In178       O187   2.240   1_556  S
In178       O190   2.249   1_556  S
C179        O185   1.262       .  A
C179        O187   1.260   1_556  A
C179        C751   1.483       .  S
O180        C188   1.259       .  A
O181        C188   1.262   1_554  A
C182        O189   1.262       .  A
C182        O183   1.259       .  A
C182       C1567   1.483       .  S
C184        O186   1.261       .  A
C184        O190   1.263       .  A
C184        C700   1.482       .  S
C188        C871   1.479       .  S
C191        C727   1.495       .  S
C191        N192   1.368       .  A
C191        N196   1.370       .  A
N192        C193   1.360       .  A
C193        C679   1.475       .  S
C193        N194   1.351       .  A
N194        C195   1.351       .  A
C195        C652   1.478       .  S
C195        N196   1.361       .  A
C197        C823   1.492       .  S
C197        N198   1.371       .  A
C197        N202   1.367       .  A
N198        C199   1.363       .  A
C199        C628   1.483       .  S
C199        N200   1.351       .  A
N200        C201   1.351       .  A
C201        C604   1.478       .  S
C201        N202   1.357       .  A
In203       O205   2.232   1_566  S
In203       O206   2.275   1_565  S
In203       O214   2.262   1_566  S
In203       O208   2.228   1_556  S
In203       O210   2.282   1_556  S
In203       O211   2.241       .  S
In203       O212   2.228       .  S
In203       O215   2.254       .  S
C204        O210   1.261   1_556  A
C204        O212   1.259       .  A
C204        C607   1.483       .  S
O205        C213   1.260   1_554  A
O206        C213   1.263       .  A
C207        O214   1.262       .  A
C207        O208   1.260   1_545  A
C207        C580   1.479       .  S
C209        O211   1.260       .  A
C209        O215   1.261       .  A
C209       C1231   1.479       .  S
C213        C655   1.483       .  S
In216       O218   2.253       .  S
In216       O219   2.243       .  S
In216       O227   2.250   1_566  S
In216       O221   2.243   1_556  S
In216       O223   2.268   1_556  S
In216       O224   2.267   1_565  S
In216       O225   2.234       .  S
In216       O228   2.236   1_566  S
C217        O223   1.262   1_556  A
C217        O225   1.260       .  A
C217        C631   1.481       .  S
O218        C226   1.262       .  A
O219        C226   1.261       .  A
C220        O227   1.261   1_565  A
C220        O221   1.260       .  A
C220        C556   1.477   1_565  S
C222        O224   1.262   1_554  A
C222        O228   1.260       .  A
C222        C676   1.481       .  S
C226       C1420   1.480       .  S
In229       O231   2.257       .  S
In229       O232   2.271       .  S
In229       O240   2.254       .  S
In229       O234   2.254       .  S
In229       O236   2.257       .  S
In229       O237   2.253       .  S
In229       O238   2.278       .  S
In229       O241   2.269       .  S
C230        O236   1.259       .  A
C230        O238   1.260       .  A
C230        C532   1.487       .  S
O231        C239   1.262       .  A
O232        C239   1.259       .  A
C233        O240   1.262       .  A
C233        O234   1.261       .  A
C233       C1036   1.483       .  S
C235        O237   1.261       .  A
C235        O241   1.262       .  A
C235        C703   1.486       .  S
C239        C508   1.486       .  S
C242        C460   1.499       .  S
C242        N243   1.372       .  A
C242        N247   1.369       .  A
N243        C244   1.365       .  A
C244        C535   1.490       .  S
C244        N245   1.352       .  A
N245        C246   1.352       .  A
C246        C484   1.485       .  S
C246        N247   1.362       .  A
In248       O250   2.246       .  S
In248       O251   2.252       .  S
In248       O259   2.254       .  S
In248       O253   2.243       .  S
In248       O255   2.255       .  S
In248       O256   2.254       .  S
In248       O257   2.263       .  S
In248       O260   2.259       .  S
C249        O255   1.261       .  A
C249        O257   1.259       .  A
C249        C487   1.483       .  S
O250        C258   1.260       .  A
O251        C258   1.260       .  A
C252        O259   1.262       .  A
C252        O253   1.261       .  A
C252        C916   1.479       .  S
C254        O256   1.261       .  A
C254        O260   1.259       .  A
C254        C436   1.481       .  S
C258        C559   1.478       .  S
C261        C415   1.494       .  S
C261        N262   1.369       .  A
C261        N266   1.369       .  A
N262        C263   1.361       .  A
C263        C511   1.483       .  S
C263        N264   1.351       .  A
N264        C265   1.353       .  A
C265        C439   1.483       .  S
C265        N266   1.362       .  A
C267        C412   1.492       .  S
C267        N268   1.368       .  A
C267        N272   1.369       .  A
N268        C269   1.359       .  A
C269        C388   1.470       .  S
C269        N270   1.347       .  A
N270        C271   1.350       .  A
C271        C364   1.477       .  S
C271        N272   1.361       .  A
In273       O275   2.237       .  S
In273       O276   2.277       .  S
In273       O284   2.256       .  S
In273       O278   2.239       .  S
In273       O280   2.267       .  S
In273       O281   2.260       .  S
In273       O282   2.224       .  S
In273       O285   2.260       .  S
C274        O280   1.262       .  A
C274        O282   1.261       .  A
C274        C367   1.479       .  S
O275        C283   1.260       .  A
O276        C283   1.264       .  A
C277        O284   1.263       .  A
C277        O278   1.259       .  A
C277        C583   1.480       .  S
C279        O281   1.261       .  A
C279        O285   1.262       .  A
C279        C895   1.485       .  S
C283        C340   1.486       .  S
C286        C463   1.500       .  S
C286        N287   1.371       .  A
C286        N291   1.370       .  A
N287        C288   1.364       .  A
C288        C343   1.483       .  S
C288        N289   1.352       .  A
N289        C290   1.352       .  A
C290        C316   1.479       .  S
C290        N291   1.361       .  A
In292       O294   2.258       .  S
In292       O295   2.245       .  S
In292       O303   2.271       .  S
In292       O297   2.240       .  S
In292       O299   2.251       .  S
In292       O300   2.275       .  S
In292       O301   2.239       .  S
In292       O304   2.230       .  S
C293        O299   1.261       .  A
C293        O301   1.261       .  A
C293        C391   1.476       .  S
O294        C302   1.262       .  A
O295        C302   1.261       .  A
C296        O303   1.263       .  A
C296        O297   1.258       .  A
C296        C775   1.482       .  S
C298        O300   1.262       .  A
C298        O304   1.259       .  A
C298        C319   1.480       .  S
C302       C1111   1.482       .  S
C305        C306   1.396       .  A
C305        C310   1.402       .  A
C305        H321   1.084       .  S
C306        C307   1.402       .  A
C306        H322   1.084       .  S
C307        C317   1.399       .  A
C307        C308   1.411       .  A
C308        C314   1.413       .  A
C308        C309   1.414       .  A
C309        C311   1.412       .  A
C309        C310   1.411       .  A
C310        C318   1.399       .  A
C311        C320   1.411       .  A
C311        C312   1.405       .  A
C312        C313   1.404       .  A
C312        H323   1.083       .  S
C313        C314   1.406       .  A
C313        H324   1.083       .  S
C314        C315   1.412       .  A
C315        C316   1.408       .  A
C315        H325   1.084       .  S
C316        C317   1.405       .  A
C317        H326   1.085       .  S
C318        C319   1.404       .  A
C318        H327   1.084       .  S
C319        C320   1.409       .  A
C320        H328   1.084       .  S
C329        C330   1.398       .  A
C329        C334   1.404       .  A
C329        H345   1.084       .  S
C330        C331   1.403       .  A
C330        H346   1.084       .  S
C331        C341   1.402       .  A
C331        C332   1.411       .  A
C332        C338   1.412       .  A
C332        C333   1.416       .  A
C333        C335   1.413       .  A
C333        C334   1.410       .  A
C334        C342   1.401       .  A
C335        C344   1.412       .  A
C335        C336   1.405       .  A
C336        C337   1.403       .  A
C336        H347   1.083       .  S
C337        C338   1.405       .  A
C337        H348   1.083       .  S
C338        C339   1.410       .  A
C339        C340   1.409       .  A
C339        H349   1.084       .  S
C340        C341   1.407       .  A
C341        H350   1.084       .  S
C342        C343   1.408       .  A
C342        H351   1.085       .  S
C343        C344   1.407       .  A
C344        H352   1.084       .  S
C353        C354   1.394       .  A
C353        C358   1.401       .  A
C353        H369   1.083       .  S
C354        C355   1.402       .  A
C354        H370   1.084       .  S
C355        C365   1.394       .  A
C355        C356   1.410       .  A
C356        C362   1.414       .  A
C356        C357   1.412       .  A
C357        C359   1.412       .  A
C357        C358   1.411       .  A
C358        C366   1.396       .  A
C359        C368   1.410       .  A
C359        C360   1.406       .  A
C360        C361   1.404       .  A
C360        H371   1.084       .  S
C361        C362   1.405       .  A
C361        H372   1.083       .  S
C362        C363   1.411       .  A
C363        C364   1.407       .  A
C363        H373   1.084       .  S
C364        C365   1.405       .  A
C365        H374   1.085       .  S
C366        C367   1.403       .  A
C366        H375   1.084       .  S
C367        C368   1.410       .  A
C368        H376   1.084       .  S
C377        C378   1.397       .  A
C377        C382   1.402       .  A
C377        H393   1.084       .  S
C378        C379   1.403       .  A
C378        H394   1.084       .  S
C379        C389   1.399       .  A
C379        C380   1.411       .  A
C380        C386   1.414       .  A
C380        C381   1.412       .  A
C381        C383   1.411       .  A
C381        C382   1.412       .  A
C382        C390   1.401       .  A
C383        C392   1.405       .  A
C383        C384   1.404       .  A
C384        C385   1.401       .  A
C384        H395   1.083       .  S
C385        C386   1.404       .  A
C385        H396   1.083       .  S
C386        C387   1.408       .  A
C387        C388   1.404       .  A
C387        H397   1.084       .  S
C388        C389   1.404       .  A
C389        H398   1.085       .  S
C390        C391   1.404       .  A
C390        H399   1.085       .  S
C391        C392   1.407       .  A
C392        H400   1.084       .  S
C401        C402   1.400   1_455  A
C401        C406   1.404       .  A
C401        H417   1.084       .  S
C402        C403   1.404       .  A
C402        H418   1.084       .  S
C403        C413   1.406       .  A
C403        C404   1.411       .  A
C404        C410   1.411       .  A
C404        C405   1.416   1_655  A
C405        C407   1.411       .  A
C405        C406   1.411       .  A
C406        C414   1.406       .  A
C407        C416   1.408       .  A
C407        C408   1.405       .  A
C408        C409   1.401   1_455  A
C408        H419   1.084       .  S
C409        C410   1.405       .  A
C409        H420   1.084       .  S
C410        C411   1.407       .  A
C411        C412   1.410       .  A
C411        H421   1.084       .  S
C412        C413   1.410       .  A
C413        H422   1.084       .  S
C414        C415   1.410       .  A
C414        H423   1.084       .  S
C415        C416   1.411       .  A
C416        H424   1.084       .  S
C425        C426   1.397       .  A
C425        C430   1.403       .  A
C425        H441   1.084       .  S
C426        C427   1.402       .  A
C426        H442   1.084       .  S
C427        C437   1.402       .  A
C427        C428   1.413       .  A
C428        C434   1.411       .  A
C428        C429   1.414       .  A
C429        C431   1.414       .  A
C429        C430   1.409       .  A
C430        C438   1.398       .  A
C431        C440   1.411       .  A
C431        C432   1.405       .  A
C432        C433   1.403       .  A
C432        H443   1.083       .  S
C433        C434   1.405       .  A
C433        H444   1.084       .  S
C434        C435   1.407       .  A
C435        C436   1.409       .  A
C435        H445   1.084       .  S
C436        C437   1.405       .  A
C437        H446   1.084       .  S
C438        C439   1.408       .  A
C438        H447   1.085       .  S
C439        C440   1.408       .  A
C440        H448   1.084       .  S
C449        C450   1.403       .  A
C449        C454   1.405       .  A
C449        H465   1.084       .  S
C450        C451   1.405       .  A
C450        H466   1.083       .  S
C451        C461   1.411       .  A
C451        C452   1.411       .  A
C452        C458   1.412       .  A
C452        C453   1.420       .  A
C453        C455   1.411       .  A
C453        C454   1.411       .  A
C454        C462   1.411       .  A
C455        C464   1.409       .  A
C455        C456   1.405       .  A
C456        C457   1.402       .  A
C456        H467   1.083       .  S
C457        C458   1.404       .  A
C457        H468   1.083       .  S
C458        C459   1.410       .  A
C459        C460   1.410       .  A
C459        H469   1.084       .  S
C460        C461   1.413       .  A
C461        H470   1.084       .  S
C462        C463   1.412       .  A
C462        H471   1.084       .  S
C463        C464   1.412       .  A
C464        H472   1.084       .  S
C473        C474   1.397       .  A
C473        C478   1.403       .  A
C473        H489   1.083       .  S
C474        C475   1.403       .  A
C474        H490   1.084       .  S
C475        C485   1.400       .  A
C475        C476   1.410       .  A
C476        C482   1.414       .  A
C476        C477   1.414       .  A
C477        C479   1.411       .  A
C477        C478   1.412       .  A
C478        C486   1.402       .  A
C479        C488   1.408       .  A
C479        C480   1.405       .  A
C480        C481   1.403       .  A
C480        H491   1.084       .  S
C481        C482   1.405       .  A
C481        H492   1.083       .  S
C482        C483   1.411       .  A
C483        C484   1.408       .  A
C483        H493   1.084       .  S
C484        C485   1.408       .  A
C485        H494   1.085       .  S
C486        C487   1.405       .  A
C486        H495   1.084       .  S
C487        C488   1.409       .  A
C488        H496   1.084       .  S
C497        C498   1.397       .  A
C497        C502   1.403       .  A
C497        H513   1.083       .  S
C498        C499   1.402       .  A
C498        H514   1.084       .  S
C499        C509   1.402       .  A
C499        C500   1.412       .  A
C500        C506   1.411       .  A
C500        C501   1.415       .  A
C501        C503   1.413       .  A
C501        C502   1.410       .  A
C502        C510   1.400       .  A
C503        C512   1.411       .  A
C503        C504   1.405       .  A
C504        C505   1.403       .  A
C504        H515   1.084       .  S
C505        C506   1.406       .  A
C505        H516   1.083       .  S
C506        C507   1.410       .  A
C507        C508   1.411       .  A
C507        H517   1.084       .  S
C508        C509   1.405       .  A
C509        H518   1.084       .  S
C510        C511   1.408       .  A
C510        H519   1.085       .  S
C511        C512   1.407       .  A
C512        H520   1.084       .  S
C521        C522   1.404       .  A
C521        C526   1.405       .  A
C521        H537   1.083       .  S
C522        C523   1.406       .  A
C522        H538   1.083       .  S
C523        C533   1.411       .  A
C523        C524   1.411       .  A
C524        C530   1.412       .  A
C524        C525   1.417       .  A
C525        C527   1.409       .  A
C525        C526   1.414       .  A
C526        C534   1.413       .  A
C527        C536   1.402       .  A
C527        C528   1.404       .  A
C528        C529   1.398       .  A
C528        H539   1.084       .  S
C529        C530   1.403       .  A
C529        H540   1.083       .  S
C530        C531   1.404       .  A
C531        C532   1.406       .  A
C531        H541   1.084       .  S
C532        C533   1.410       .  A
C533        H542   1.084       .  S
C534        C535   1.408       .  A
C534        H543   1.084       .  S
C535        C536   1.410       .  A
C536        H544   1.085       .  S
C545        C546   1.399       .  A
C545        C550   1.403       .  A
C545        H561   1.084       .  S
C546        C547   1.404       .  A
C546        H562   1.083   1_545  S
C547        C557   1.403   1_545  A
C547        C548   1.411       .  A
C548        C554   1.412       .  A
C548        C549   1.412       .  A
C549        C551   1.411       .  A
C549        C550   1.412       .  A
C550        C558   1.402       .  A
C551        C560   1.403       .  A
C551        C552   1.404       .  A
C552        C553   1.399       .  A
C552        H563   1.083       .  S
C553        C554   1.403       .  A
C553        H564   1.084       .  S
C554        C555   1.403       .  A
C555        C556   1.405       .  A
C555        H565   1.085       .  S
C556        C557   1.407   1_545  A
C557        H566   1.084       .  S
C558        C559   1.406       .  A
C558        H567   1.085       .  S
C559        C560   1.406       .  A
C560        H568   1.084       .  S
C569        C570   1.401       .  A
C569        C574   1.405       .  A
C569        H585   1.083       .  S
C570        C571   1.404       .  A
C570        H586   1.084       .  S
C571        C581   1.407       .  A
C571        C572   1.413       .  A
C572        C578   1.410       .  A
C572        C573   1.412       .  A
C573        C575   1.413       .  A
C573        C574   1.410       .  A
C574        C582   1.404       .  A
C575        C584   1.403       .  A
C575        C576   1.402       .  A
C576        C577   1.398       .  A
C576        H587   1.084       .  S
C577        C578   1.403       .  A
C577        H588   1.083   1_545  S
C578        C579   1.400       .  A
C579        C580   1.406       .  A
C579        H589   1.084   1_545  S
C580        C581   1.407       .  A
C581        H590   1.085       .  S
C582        C583   1.409       .  A
C582        H591   1.084       .  S
C583        C584   1.405       .  A
C584        H592   1.085       .  S
C593        C594   1.406       .  A
C593        C598   1.407       .  A
C593        H609   1.083       .  S
C594        C595   1.406   1_554  A
C594        H610   1.083       .  S
C595        C605   1.413       .  A
C595        C596   1.413       .  A
C596        C602   1.410       .  A
C596        C597   1.413       .  A
C597        C599   1.411       .  A
C597        C598   1.412   1_556  A
C598        C606   1.413       .  A
C599        C608   1.395       .  A
C599        C600   1.401       .  A
C600        C601   1.393       .  A
C600        H611   1.083       .  S
C601        C602   1.401       .  A
C601        H612   1.084       .  S
C602        C603   1.393       .  A
C603        C604   1.403       .  A
C603        H613   1.085       .  S
C604        C605   1.409       .  A
C605        H614   1.084   1_556  S
C606        C607   1.412   1_554  A
C606        H615   1.084       .  S
C607        C608   1.403       .  A
C608        H616   1.084       .  S
C617        C618   1.404       .  A
C617        C622   1.405       .  A
C617        H633   1.083       .  S
C618        C619   1.405       .  A
C618        H634   1.083       .  S
C619        C629   1.413       .  A
C619        C620   1.414   1_554  A
C620        C626   1.409       .  A
C620        C621   1.414       .  A
C621        C623   1.412       .  A
C621        C622   1.411   1_556  A
C622        C630   1.409       .  A
C623        C632   1.399       .  A
C623        C624   1.402       .  A
C624        C625   1.396       .  A
C624        H635   1.084       .  S
C625        C626   1.403       .  A
C625        H636   1.084       .  S
C626        C627   1.397       .  A
C627        C628   1.407       .  A
C627        H637   1.085       .  S
C628        C629   1.408   1_556  A
C629        H638   1.084       .  S
C630        C631   1.409   1_554  A
C630        H639   1.084       .  S
C631        C632   1.405       .  A
C632        H640   1.084       .  S
C641        C642   1.404       .  A
C641        C646   1.406       .  A
C641        H657   1.083       .  S
C642        C643   1.405       .  A
C642        H658   1.083       .  S
C643        C653   1.412       .  A
C643        C644   1.414       .  A
C644        C650   1.410   1_556  A
C644        C645   1.414       .  A
C645        C647   1.411   1_556  A
C645        C646   1.412       .  A
C646        C654   1.411       .  A
C647        C656   1.399       .  A
C647        C648   1.402       .  A
C648        C649   1.396       .  A
C648        H659   1.084       .  S
C649        C650   1.402       .  A
C649        H660   1.084       .  S
C650        C651   1.398       .  A
C651        C652   1.405   1_554  A
C651        H661   1.085       .  S
C652        C653   1.407       .  A
C653        H662   1.084       .  S
C654        C655   1.410       .  A
C654        H663   1.084       .  S
C655        C656   1.405   1_556  A
C656        H664   1.084       .  S
C665        C666   1.403       .  A
C665        C670   1.405       .  A
C665        H681   1.083       .  S
C666        C667   1.406       .  A
C666        H682   1.083       .  S
C667        C677   1.409       .  A
C667        C668   1.411   1_556  A
C668        C674   1.412       .  A
C668        C669   1.413       .  A
C669        C671   1.410       .  A
C669        C670   1.414   1_554  A
C670        C678   1.411       .  A
C671        C680   1.396       .  A
C671        C672   1.402       .  A
C672        C673   1.395       .  A
C672        H683   1.084       .  S
C673        C674   1.402       .  A
C673        H684   1.084       .  S
C674        C675   1.399       .  A
C675        C676   1.405       .  A
C675        H685   1.084       .  S
C676        C677   1.409   1_554  A
C677        H686   1.084       .  S
C678        C679   1.406       .  A
C678        H687   1.084       .  S
C679        C680   1.404   1_556  A
C680        H688   1.085       .  S
C689        C690   1.398       .  A
C689        C694   1.404       .  A
C689        H705   1.083       .  S
C690        C691   1.402       .  A
C690        H706   1.084       .  S
C691        C701   1.403       .  A
C691        C692   1.412       .  A
C692        C698   1.411       .  A
C692        C693   1.415       .  A
C693        C695   1.412       .  A
C693        C694   1.411       .  A
C694        C702   1.403       .  A
C695        C704   1.409       .  A
C695        C696   1.405       .  A
C696        C697   1.402       .  A
C696        H707   1.084       .  S
C697        C698   1.405       .  A
C697        H708   1.083       .  S
C698        C699   1.407       .  A
C699        C700   1.409       .  A
C699        H709   1.084       .  S
C700        C701   1.405       .  A
C701        H710   1.085       .  S
C702        C703   1.407       .  A
C702        H711   1.083       .  S
C703        C704   1.409       .  A
C704        H712   1.085       .  S
C713        C714   1.399       .  A
C713        C718   1.404       .  A
C713        H729   1.083       .  S
C714        C715   1.404       .  A
C714        H730   1.083       .  S
C715        C725   1.404       .  A
C715        C716   1.410       .  A
C716        C722   1.411       .  A
C716        C717   1.416       .  A
C717        C719   1.411       .  A
C717        C718   1.411       .  A
C718        C726   1.406       .  A
C719        C728   1.408       .  A
C719        C720   1.405       .  A
C720        C721   1.402       .  A
C720        H731   1.083       .  S
C721        C722   1.405       .  A
C721        H732   1.084       .  S
C722        C723   1.408       .  A
C723        C724   1.411       .  A
C723        H733   1.084       .  S
C724        C725   1.409       .  A
C725        H734   1.084       .  S
C726        C727   1.410       .  A
C726        H735   1.084       .  S
C727        C728   1.412       .  A
C728        H736   1.084       .  S
C737        C738   1.402       .  A
C737        C742   1.405       .  A
C737        H753   1.083       .  S
C738        C739   1.404       .  A
C738        H754   1.083       .  S
C739        C749   1.409       .  A
C739        C740   1.413   1_556  A
C740        C746   1.411       .  A
C740        C741   1.414       .  A
C741        C743   1.411       .  A
C741        C742   1.412   1_554  A
C742        C750   1.408       .  A
C743        C752   1.401       .  A
C743        C744   1.403       .  A
C744        C745   1.397       .  A
C744        H755   1.084       .  S
C745        C746   1.403       .  A
C745        H756   1.084       .  S
C746        C747   1.400       .  A
C747        C748   1.404   1_554  A
C747        H757   1.085       .  S
C748        C749   1.406       .  A
C749        H758   1.084       .  S
C750        C751   1.409       .  A
C750        H759   1.084       .  S
C751        C752   1.406   1_556  A
C752        H760   1.084       .  S
C761        C762   1.400       .  A
C761        C766   1.404       .  A
C761        H777   1.083       .  S
C762        C763   1.404       .  A
C762        H778   1.084       .  S
C763        C773   1.407       .  A
C763        C764   1.413       .  A
C764        C770   1.410       .  A
C764        C765   1.415       .  A
C765        C767   1.413       .  A
C765        C766   1.410       .  A
C766        C774   1.404       .  A
C767        C776   1.407       .  A
C767        C768   1.403       .  A
C768        C769   1.400       .  A
C768        H779   1.084       .  S
C769        C770   1.404       .  A
C769        H780   1.083       .  S
C770        C771   1.405       .  A
C771        C772   1.408       .  A
C771        H781   1.083       .  S
C772        C773   1.408       .  A
C773        H782   1.085       .  S
C774        C775   1.408       .  A
C774        H783   1.084       .  S
C775        C776   1.406       .  A
C776        H784   1.085       .  S
C785        C786   1.397       .  A
C785        C790   1.403       .  A
C785        H801   1.083       .  S
C786        C787   1.402       .  A
C786        H802   1.084       .  S
C787        C797   1.399       .  A
C787        C788   1.411   1_554  A
C788        C794   1.413       .  A
C788        C789   1.413       .  A
C789        C791   1.411       .  A
C789        C790   1.412   1_556  A
C790        C798   1.401       .  A
C791        C800   1.407       .  A
C791        C792   1.405       .  A
C792        C793   1.402       .  A
C792        H803   1.084       .  S
C793        C794   1.405       .  A
C793        H804   1.083       .  S
C794        C795   1.409       .  A
C795        C796   1.406       .  A
C795        H805   1.084       .  S
C796        C797   1.402   1_556  A
C797        H806   1.085       .  S
C798        C799   1.405   1_554  A
C798        H807   1.084       .  S
C799        C800   1.408       .  A
C800        H808   1.084       .  S
C809        C810   1.401       .  A
C809        C814   1.404       .  A
C809        H825   1.083       .  S
C810        C811   1.405       .  A
C810        H826   1.083       .  S
C811        C821   1.405       .  A
C811        C812   1.410       .  A
C812        C818   1.412       .  A
C812        C813   1.415       .  A
C813        C815   1.410   1_554  A
C813        C814   1.412       .  A
C814        C822   1.407       .  A
C815        C824   1.404       .  A
C815        C816   1.404       .  A
C816        C817   1.400   1_556  A
C816        H827   1.083       .  S
C817        C818   1.404       .  A
C817        H828   1.084       .  S
C818        C819   1.406       .  A
C819        C820   1.409       .  A
C819        H829   1.084       .  S
C820        C821   1.411       .  A
C821        H830   1.084       .  S
C822        C823   1.410   1_554  A
C822        H831   1.084       .  S
C823        C824   1.411       .  A
C824        H832   1.084       .  S
C833        C834   1.405       .  A
C833        C838   1.406       .  A
C833        H849   1.083       .  S
C834        C835   1.406       .  A
C834        H850   1.083       .  S
C835        C845   1.413       .  A
C835        C836   1.412   1_554  A
C836        C842   1.411       .  A
C836        C837   1.415       .  A
C837        C839   1.410       .  A
C837        C838   1.414   1_556  A
C838        C846   1.414       .  A
C839        C848   1.398       .  A
C839        C840   1.402       .  A
C840        C841   1.396       .  A
C840        H851   1.084       .  S
C841        C842   1.402       .  A
C841        H852   1.084       .  S
C842        C843   1.400       .  A
C843        C844   1.405       .  A
C843        H853   1.084       .  S
C844        C845   1.411   1_556  A
C845        H854   1.084       .  S
C846        C847   1.408   1_554  A
C846        H855   1.084       .  S
C847        C848   1.406       .  A
C848        H856   1.085       .  S
C857        C858   1.404       .  A
C857        C862   1.406       .  A
C857        H873   1.083       .  S
C858        C859   1.406       .  A
C858        H874   1.083       .  S
C859        C869   1.413       .  A
C859        C860   1.414   1_554  A
C860        C866   1.410       .  A
C860        C861   1.412       .  A
C861        C863   1.411       .  A
C861        C862   1.412   1_556  A
C862        C870   1.409       .  A
C863        C872   1.397       .  A
C863        C864   1.401       .  A
C864        C865   1.394       .  A
C864        H875   1.084       .  S
C865        C866   1.401       .  A
C865        H876   1.084       .  S
C866        C867   1.394       .  A
C867        C868   1.404       .  A
C867        H877   1.085       .  S
C868        C869   1.408   1_556  A
C869        H878   1.084       .  S
C870        C871   1.409   1_554  A
C870        H879   1.084       .  S
C871        C872   1.404       .  A
C872        H880   1.084       .  S
C881        C882   1.401       .  A
C881        C886   1.405       .  A
C881        H897   1.083       .  S
C882        C883   1.403       .  A
C882        H898   1.084       .  S
C883        C893   1.406       .  A
C883        C884   1.413       .  A
C884        C890   1.411       .  A
C884        C885   1.413       .  A
C885        C887   1.412       .  A
C885        C886   1.411       .  A
C886        C894   1.406       .  A
C887        C896   1.404       .  A
C887        C888   1.403       .  A
C888        C889   1.398       .  A
C888        H899   1.084       .  S
C889        C890   1.403       .  A
C889        H900   1.083   1_545  S
C890        C891   1.401   1_545  A
C891        C892   1.406   1_565  A
C891        H901   1.084       .  S
C892        C893   1.406       .  A
C893        H902   1.084       .  S
C894        C895   1.409       .  A
C894        H903   1.083       .  S
C895        C896   1.407       .  A
C896        H904   1.085       .  S
C905        C906   1.399       .  A
C905        C910   1.403       .  A
C905        H921   1.084       .  S
C906        C907   1.404       .  A
C906        H922   1.083       .  S
C907        C917   1.403       .  A
C907        C908   1.411       .  A
C908        C914   1.413       .  A
C908        C909   1.413       .  A
C909        C911   1.410       .  A
C909        C910   1.413       .  A
C910        C918   1.405       .  A
C911        C920   1.403   1_545  A
C911        C912   1.404   1_545  A
C912        C913   1.400   1_565  A
C912        H923   1.083       .  S
C913        C914   1.403       .  A
C913        H924   1.084       .  S
C914        C915   1.405       .  A
C915        C916   1.407       .  A
C915        H925   1.085       .  S
C916        C917   1.406       .  A
C917        H926   1.084       .  S
C918        C919   1.407   1_545  A
C918        H927   1.085       .  S
C919        C920   1.408       .  A
C920        H928   1.084       .  S
C929        C930   1.401       .  A
C929        C934   1.404       .  A
C929        H945   1.083       .  S
C930        C931   1.404       .  A
C930        H946   1.083       .  S
C931        C941   1.406       .  A
C931        C932   1.411       .  A
C932        C938   1.412       .  A
C932        C933   1.413       .  A
C933        C935   1.410       .  A
C933        C934   1.414       .  A
C934        C942   1.409       .  A
C935        C944   1.400       .  A
C935        C936   1.403       .  A
C936        C937   1.398       .  A
C936        H947   1.084       .  S
C937        C938   1.403       .  A
C937        H948   1.084       .  S
C938        C939   1.403       .  A
C939        C940   1.407       .  A
C939        H949   1.084       .  S
C940        C941   1.407       .  A
C941        H950   1.084       .  S
C942        C943   1.405       .  A
C942        H951   1.084       .  S
C943        C944   1.405       .  A
C944        H952   1.085       .  S
C953        C954   1.401       .  A
C953        C958   1.405       .  A
C953        H969   1.083       .  S
C954        C955   1.404       .  A
C954        H970   1.083       .  S
C955        C965   1.408       .  A
C955        C956   1.414       .  A
C956        C962   1.411       .  A
C956        C957   1.413       .  A
C957        C959   1.412       .  A
C957        C958   1.412       .  A
C958        C966   1.407       .  A
C959        C968   1.402       .  A
C959        C960   1.403       .  A
C960        C961   1.398       .  A
C960        H971   1.084       .  S
C961        C962   1.403       .  A
C961        H972   1.084       .  S
C962        C963   1.400       .  A
C963        C964   1.404       .  A
C963        H973   1.085       .  S
C964        C965   1.405       .  A
C965        H974   1.084       .  S
C966        C967   1.407       .  A
C966        H975   1.084       .  S
C967        C968   1.407       .  A
C968        H976   1.084       .  S
C977        C978   1.394       .  A
C977        C982   1.401       .  A
C977        H993   1.084       .  S
C978        C979   1.403       .  A
C978        H994   1.084       .  S
C979        C989   1.395       .  A
C979        C980   1.408       .  A
C980        C986   1.414       .  A
C980        C981   1.413       .  A
C981        C983   1.411       .  A
C981        C982   1.412       .  A
C982        C990   1.398       .  A
C983        C992   1.410       .  A
C983        C984   1.406       .  A
C984        C985   1.404       .  A
C984        H995   1.083       .  S
C985        C986   1.405       .  A
C985        H996   1.083       .  S
C986        C987   1.413       .  A
C987        C988   1.409       .  A
C987        H997   1.084       .  S
C988        C989   1.410       .  A
C989        H998   1.084       .  S
C990        C991   1.404       .  A
C990        H999   1.084       .  S
C991        C992   1.410       .  A
C992       H1000   1.084       .  S
C1001      C1002   1.400       .  A
C1001      C1006   1.404       .  A
C1001      H1017   1.084       .  S
C1002      C1003   1.404       .  A
C1002      H1018   1.083       .  S
C1003      C1013   1.406       .  A
C1003      C1004   1.413       .  A
C1004      C1010   1.411       .  A
C1004      C1005   1.413       .  A
C1005      C1007   1.413       .  A
C1005      C1006   1.412       .  A
C1006      C1014   1.404       .  A
C1007      C1016   1.405       .  A
C1007      C1008   1.403       .  A
C1008      C1009   1.399       .  A
C1008      H1019   1.083       .  S
C1009      C1010   1.403       .  A
C1009      H1020   1.084       .  S
C1010      C1011   1.402       .  A
C1011      C1012   1.406       .  A
C1011      H1021   1.084       .  S
C1012      C1013   1.407       .  A
C1013      H1022   1.084       .  S
C1014      C1015   1.403       .  A
C1014      H1023   1.085       .  S
C1015      C1016   1.403       .  A
C1016      H1024   1.084       .  S
C1025      C1026   1.400       .  A
C1025      C1030   1.404       .  A
C1025      H1041   1.083       .  S
C1026      C1027   1.404       .  A
C1026      H1042   1.084       .  S
C1027      C1037   1.405       .  A
C1027      C1028   1.412       .  A
C1028      C1034   1.411       .  A
C1028      C1029   1.414       .  A
C1029      C1031   1.412       .  A
C1029      C1030   1.411       .  A
C1030      C1038   1.406       .  A
C1031      C1040   1.405       .  A
C1031      C1032   1.404       .  A
C1032      C1033   1.400       .  A
C1032      H1043   1.084       .  S
C1033      C1034   1.404       .  A
C1033      H1044   1.083       .  S
C1034      C1035   1.405       .  A
C1035      C1036   1.408       .  A
C1035      H1045   1.084       .  S
C1036      C1037   1.407       .  A
C1037      H1046   1.085       .  S
C1038      C1039   1.408       .  A
C1038      H1047   1.084       .  S
C1039      C1040   1.407       .  A
C1040      H1048   1.085       .  S
C1049      C1050   1.398       .  A
C1049      C1054   1.404       .  A
C1049      H1065   1.084       .  S
C1050      C1051   1.404       .  A
C1050      H1066   1.084       .  S
C1051      C1061   1.403       .  A
C1051      C1052   1.410       .  A
C1052      C1058   1.412   1_655  A
C1052      C1053   1.416   1_655  A
C1053      C1055   1.411       .  A
C1053      C1054   1.411   1_455  A
C1054      C1062   1.404       .  A
C1055      C1064   1.409       .  A
C1055      C1056   1.405       .  A
C1056      C1057   1.403       .  A
C1056      H1067   1.083       .  S
C1057      C1058   1.405       .  A
C1057      H1068   1.083       .  S
C1058      C1059   1.410       .  A
C1059      C1060   1.411   1_455  A
C1059      H1069   1.084       .  S
C1060      C1061   1.410       .  A
C1061      H1070   1.084       .  S
C1062      C1063   1.410   1_655  A
C1062      H1071   1.084       .  S
C1063      C1064   1.411       .  A
C1064      H1072   1.084       .  S
C1073      C1074   1.396       .  A
C1073      C1078   1.403       .  A
C1073      H1089   1.084       .  S
C1074      C1075   1.402       .  A
C1074      H1090   1.084       .  S
C1075      C1085   1.401       .  A
C1075      C1076   1.413       .  A
C1076      C1082   1.411       .  A
C1076      C1077   1.413       .  A
C1077      C1079   1.414       .  A
C1077      C1078   1.408       .  A
C1078      C1086   1.397       .  A
C1079      C1088   1.411       .  A
C1079      C1080   1.404       .  A
C1080      C1081   1.403       .  A
C1080      H1091   1.084       .  S
C1081      C1082   1.405       .  A
C1081      H1092   1.083       .  S
C1082      C1083   1.408       .  A
C1083      C1084   1.409       .  A
C1083      H1093   1.084       .  S
C1084      C1085   1.405       .  A
C1085      H1094   1.084       .  S
C1086      C1087   1.409       .  A
C1086      H1095   1.084       .  S
C1087      C1088   1.408       .  A
C1088      H1096   1.084       .  S
C1097      C1098   1.400       .  A
C1097      C1102   1.404       .  A
C1097      H1113   1.083       .  S
C1098      C1099   1.403       .  A
C1098      H1114   1.084       .  S
C1099      C1109   1.406       .  A
C1099      C1100   1.413       .  A
C1100      C1106   1.410       .  A
C1100      C1101   1.413       .  A
C1101      C1103   1.413       .  A
C1101      C1102   1.410       .  A
C1102      C1110   1.404       .  A
C1103      C1112   1.405       .  A
C1103      C1104   1.403       .  A
C1104      C1105   1.398       .  A
C1104      H1115   1.084       .  S
C1105      C1106   1.403       .  A
C1105      H1116   1.083       .  S
C1106      C1107   1.400       .  A
C1107      C1108   1.406       .  A
C1107      H1117   1.084       .  S
C1108      C1109   1.406       .  A
C1109      H1118   1.085       .  S
C1110      C1111   1.408       .  A
C1110      H1119   1.083       .  S
C1111      C1112   1.407       .  A
C1112      H1120   1.085       .  S
C1121      C1122   1.397       .  A
C1121      C1126   1.403       .  A
C1121      H1137   1.084       .  S
C1122      C1123   1.402       .  A
C1122      H1138   1.084       .  S
C1123      C1133   1.402       .  A
C1123      C1124   1.413       .  A
C1124      C1130   1.411       .  A
C1124      C1125   1.412       .  A
C1125      C1127   1.414       .  A
C1125      C1126   1.410       .  A
C1126      C1134   1.399       .  A
C1127      C1136   1.408       .  A
C1127      C1128   1.404       .  A
C1128      C1129   1.401       .  A
C1128      H1139   1.083       .  S
C1129      C1130   1.405       .  A
C1129      H1140   1.084       .  S
C1130      C1131   1.405       .  A
C1131      C1132   1.408       .  A
C1131      H1141   1.084       .  S
C1132      C1133   1.404       .  A
C1133      H1142   1.084       .  S
C1134      C1135   1.406       .  A
C1134      H1143   1.085       .  S
C1135      C1136   1.405       .  A
C1136      H1144   1.084       .  S
C1145      C1146   1.399       .  A
C1145      C1150   1.403       .  A
C1145      H1161   1.084       .  S
C1146      C1147   1.404       .  A
C1146      H1162   1.084       .  S
C1147      C1157   1.402       .  A
C1147      C1148   1.409       .  A
C1148      C1154   1.412   1_455  A
C1148      C1149   1.415       .  A
C1149      C1151   1.410   1_455  A
C1149      C1150   1.412       .  A
C1150      C1158   1.405       .  A
C1151      C1160   1.406       .  A
C1151      C1152   1.405       .  A
C1152      C1153   1.401       .  A
C1152      H1163   1.083       .  S
C1153      C1154   1.404       .  A
C1153      H1164   1.083       .  S
C1154      C1155   1.409       .  A
C1155      C1156   1.410   1_655  A
C1155      H1165   1.084       .  S
C1156      C1157   1.411       .  A
C1157      H1166   1.084       .  S
C1158      C1159   1.409       .  A
C1158      H1167   1.084       .  S
C1159      C1160   1.411   1_455  A
C1160      H1168   1.084       .  S
C1169      C1170   1.400       .  A
C1169      C1174   1.404       .  A
C1169      H1185   1.083       .  S
C1170      C1171   1.403       .  A
C1170      H1186   1.083       .  S
C1171      C1181   1.406       .  A
C1171      C1172   1.413       .  A
C1172      C1178   1.411       .  A
C1172      C1173   1.412       .  A
C1173      C1175   1.412       .  A
C1173      C1174   1.412       .  A
C1174      C1182   1.406       .  A
C1175      C1184   1.402       .  A
C1175      C1176   1.403       .  A
C1176      C1177   1.398       .  A
C1176      H1187   1.084       .  S
C1177      C1178   1.403       .  A
C1177      H1188   1.084       .  S
C1178      C1179   1.400       .  A
C1179      C1180   1.406       .  A
C1179      H1189   1.085       .  S
C1180      C1181   1.404       .  A
C1181      H1190   1.084       .  S
C1182      C1183   1.408       .  A
C1182      H1191   1.084       .  S
C1183      C1184   1.406       .  A
C1184      H1192   1.084       .  S
C1193      C1194   1.394       .  A
C1193      C1198   1.401       .  A
C1193      H1209   1.084       .  S
C1194      C1195   1.403       .  A
C1194      H1210   1.084       .  S
C1195      C1205   1.394       .  A
C1195      C1196   1.407       .  A
C1196      C1202   1.414       .  A
C1196      C1197   1.413       .  A
C1197      C1199   1.411       .  A
C1197      C1198   1.412       .  A
C1198      C1206   1.398       .  A
C1199      C1208   1.409       .  A
C1199      C1200   1.406       .  A
C1200      C1201   1.404       .  A
C1200      H1211   1.083       .  S
C1201      C1202   1.405       .  A
C1201      H1212   1.084       .  S
C1202      C1203   1.413       .  A
C1203      C1204   1.410       .  A
C1203      H1213   1.084       .  S
C1204      C1205   1.411       .  A
C1205      H1214   1.084       .  S
C1206      C1207   1.404       .  A
C1206      H1215   1.085       .  S
C1207      C1208   1.409       .  A
C1208      H1216   1.084       .  S
C1217      C1218   1.400       .  A
C1217      C1222   1.403       .  A
C1217      H1233   1.084       .  S
C1218      C1219   1.404       .  A
C1218      H1234   1.083       .  S
C1219      C1229   1.403       .  A
C1219      C1220   1.410       .  A
C1220      C1226   1.413       .  A
C1220      C1221   1.412       .  A
C1221      C1223   1.410       .  A
C1221      C1222   1.413       .  A
C1222      C1230   1.405       .  A
C1223      C1232   1.402       .  A
C1223      C1224   1.404       .  A
C1224      C1225   1.399       .  A
C1224      H1235   1.083       .  S
C1225      C1226   1.403       .  A
C1225      H1236   1.084       .  S
C1226      C1227   1.404       .  A
C1227      C1228   1.405       .  A
C1227      H1237   1.085       .  S
C1228      C1229   1.407       .  A
C1229      H1238   1.084       .  S
C1230      C1231   1.407       .  A
C1230      H1239   1.085       .  S
C1231      C1232   1.407       .  A
C1232      H1240   1.083       .  S
C1241      C1242   1.398       .  A
C1241      C1246   1.403       .  A
C1241      H1257   1.084       .  S
C1242      C1243   1.403       .  A
C1242      H1258   1.083       .  S
C1243      C1253   1.402       .  A
C1243      C1244   1.411       .  A
C1244      C1250   1.412       .  A
C1244      C1245   1.413       .  A
C1245      C1247   1.411       .  A
C1245      C1246   1.412       .  A
C1246      C1254   1.402       .  A
C1247      C1256   1.405       .  A
C1247      C1248   1.405       .  A
C1248      C1249   1.401       .  A
C1248      H1259   1.083       .  S
C1249      C1250   1.404       .  A
C1249      H1260   1.084       .  S
C1250      C1251   1.405       .  A
C1251      C1252   1.408       .  A
C1251      H1261   1.085       .  S
C1252      C1253   1.405       .  A
C1253      H1262   1.084       .  S
C1254      C1255   1.405       .  A
C1254      H1263   1.085       .  S
C1255      C1256   1.408       .  A
C1256      H1264   1.083       .  S
C1265      C1266   1.397       .  A
C1265      C1270   1.403       .  A
C1265      H1281   1.083       .  S
C1266      C1267   1.403       .  A
C1266      H1282   1.084       .  S
C1267      C1277   1.401       .  A
C1267      C1268   1.411       .  A
C1268      C1274   1.412       .  A
C1268      C1269   1.415       .  A
C1269      C1271   1.413       .  A
C1269      C1270   1.411       .  A
C1270      C1278   1.401       .  A
C1271      C1280   1.411       .  A
C1271      C1272   1.405       .  A
C1272      C1273   1.403       .  A
C1272      H1283   1.083       .  S
C1273      C1274   1.405       .  A
C1273      H1284   1.083       .  S
C1274      C1275   1.409       .  A
C1275      C1276   1.409       .  A
C1275      H1285   1.084       .  S
C1276      C1277   1.406       .  A
C1277      H1286   1.084       .  S
C1278      C1279   1.407       .  A
C1278      H1287   1.085       .  S
C1279      C1280   1.408       .  A
C1280      H1288   1.084       .  S
C1289      C1290   1.400       .  A
C1289      C1294   1.404       .  A
C1289      H1305   1.083       .  S
C1290      C1291   1.404       .  A
C1290      H1306   1.084       .  S
C1291      C1301   1.406       .  A
C1291      C1292   1.413       .  A
C1292      C1298   1.410       .  A
C1292      C1293   1.412       .  A
C1293      C1295   1.413       .  A
C1293      C1294   1.410       .  A
C1294      C1302   1.402       .  A
C1295      C1304   1.403       .  A
C1295      C1296   1.403       .  A
C1296      C1297   1.398       .  A
C1296      H1307   1.084       .  S
C1297      C1298   1.404       .  A
C1297      H1308   1.083       .  S
C1298      C1299   1.401       .  A
C1299      C1300   1.406       .  A
C1299      H1309   1.084       .  S
C1300      C1301   1.407       .  A
C1301      H1310   1.084       .  S
C1302      C1303   1.407       .  A
C1302      H1311   1.084       .  S
C1303      C1304   1.405       .  A
C1304      H1312   1.085       .  S
C1313      C1314   1.398       .  A
C1313      C1318   1.403       .  A
C1313      H1329   1.083       .  S
C1314      C1315   1.402       .  A
C1314      H1330   1.084       .  S
C1315      C1325   1.402       .  A
C1315      C1316   1.412       .  A
C1316      C1322   1.411       .  A
C1316      C1317   1.415       .  A
C1317      C1319   1.412       .  A
C1317      C1318   1.411       .  A
C1318      C1326   1.402       .  A
C1319      C1328   1.409       .  A
C1319      C1320   1.405       .  A
C1320      C1321   1.403       .  A
C1320      H1331   1.084       .  S
C1321      C1322   1.406       .  A
C1321      H1332   1.083       .  S
C1322      C1323   1.409       .  A
C1323      C1324   1.410       .  A
C1323      H1333   1.083       .  S
C1324      C1325   1.405       .  A
C1325      H1334   1.085       .  S
C1326      C1327   1.406       .  A
C1326      H1335   1.084       .  S
C1327      C1328   1.409       .  A
C1328      H1336   1.085       .  S
C1337      C1338   1.397       .  A
C1337      C1342   1.403       .  A
C1337      H1353   1.083       .  S
C1338      C1339   1.402       .  A
C1338      H1354   1.084       .  S
C1339      C1349   1.401       .  A
C1339      C1340   1.412       .  A
C1340      C1346   1.412       .  A
C1340      C1341   1.415       .  A
C1341      C1343   1.414       .  A
C1341      C1342   1.410       .  A
C1342      C1350   1.400       .  A
C1343      C1352   1.413       .  A
C1343      C1344   1.406       .  A
C1344      C1345   1.404       .  A
C1344      H1355   1.083       .  S
C1345      C1346   1.406       .  A
C1345      H1356   1.083       .  S
C1346      C1347   1.411       .  A
C1347      C1348   1.410       .  A
C1347      H1357   1.084       .  S
C1348      C1349   1.406       .  A
C1349      H1358   1.084       .  S
C1350      C1351   1.405       .  A
C1350      H1359   1.085       .  S
C1351      C1352   1.408       .  A
C1352      H1360   1.084       .  S
C1361      C1362   1.402       .  A
C1361      C1366   1.404       .  A
C1361      H1377   1.084       .  S
C1362      C1363   1.405       .  A
C1362      H1378   1.083       .  S
C1363      C1373   1.407       .  A
C1363      C1364   1.412       .  A
C1364      C1370   1.411       .  A
C1364      C1365   1.412       .  A
C1365      C1367   1.410       .  A
C1365      C1366   1.414       .  A
C1366      C1374   1.409       .  A
C1367      C1376   1.397       .  A
C1367      C1368   1.403       .  A
C1368      C1369   1.396       .  A
C1368      H1379   1.083       .  S
C1369      C1370   1.402       .  A
C1369      H1380   1.084       .  S
C1370      C1371   1.398       .  A
C1371      C1372   1.404       .  A
C1371      H1381   1.085       .  S
C1372      C1373   1.408       .  A
C1373      H1382   1.084       .  S
C1374      C1375   1.405       .  A
C1374      H1383   1.084       .  S
C1375      C1376   1.405       .  A
C1376      H1384   1.085       .  S
C1385      C1386   1.396       .  A
C1385      C1390   1.402       .  A
C1385      H1401   1.084       .  S
C1386      C1387   1.403       .  A
C1386      H1402   1.084       .  S
C1387      C1397   1.397       .  A
C1387      C1388   1.409       .  A
C1388      C1394   1.414       .  A
C1388      C1389   1.413       .  A
C1389      C1391   1.411       .  A
C1389      C1390   1.411       .  A
C1390      C1398   1.399       .  A
C1391      C1400   1.409       .  A
C1391      C1392   1.405       .  A
C1392      C1393   1.403       .  A
C1392      H1403   1.083       .  S
C1393      C1394   1.404       .  A
C1393      H1404   1.083       .  S
C1394      C1395   1.411       .  A
C1395      C1396   1.407       .  A
C1395      H1405   1.084       .  S
C1396      C1397   1.409       .  A
C1397      H1406   1.085       .  S
C1398      C1399   1.406       .  A
C1398      H1407   1.084       .  S
C1399      C1400   1.408       .  A
C1400      H1408   1.084       .  S
C1409      C1410   1.400       .  A
C1409      C1414   1.404       .  A
C1409      H1425   1.084       .  S
C1410      C1411   1.404       .  A
C1410      H1426   1.083       .  S
C1411      C1421   1.404       .  A
C1411      C1412   1.411       .  A
C1412      C1418   1.412       .  A
C1412      C1413   1.413       .  A
C1413      C1415   1.411       .  A
C1413      C1414   1.412       .  A
C1414      C1422   1.405       .  A
C1415      C1424   1.404       .  A
C1415      C1416   1.404       .  A
C1416      C1417   1.399       .  A
C1416      H1427   1.083       .  S
C1417      C1418   1.403       .  A
C1417      H1428   1.084       .  S
C1418      C1419   1.405       .  A
C1419      C1420   1.406       .  A
C1419      H1429   1.085       .  S
C1420      C1421   1.407       .  A
C1421      H1430   1.084       .  S
C1422      C1423   1.407       .  A
C1422      H1431   1.085       .  S
C1423      C1424   1.407       .  A
C1424      H1432   1.083       .  S
C1433      C1434   1.397       .  A
C1433      C1438   1.402       .  A
C1433      H1449   1.084       .  S
C1434      C1435   1.403       .  A
C1434      H1450   1.083       .  S
C1435      C1445   1.402       .  A
C1435      C1436   1.411       .  A
C1436      C1442   1.412       .  A
C1436      C1437   1.413       .  A
C1437      C1439   1.411       .  A
C1437      C1438   1.412       .  A
C1438      C1446   1.401       .  A
C1439      C1448   1.407       .  A
C1439      C1440   1.405       .  A
C1440      C1441   1.402       .  A
C1440      H1451   1.083       .  S
C1441      C1442   1.405       .  A
C1441      H1452   1.084       .  S
C1442      C1443   1.407       .  A
C1443      C1444   1.409       .  A
C1443      H1453   1.085       .  S
C1444      C1445   1.406       .  A
C1445      H1454   1.084       .  S
C1446      C1447   1.405       .  A
C1446      H1455   1.085       .  S
C1447      C1448   1.409       .  A
C1448      H1456   1.084       .  S
C1457      C1458   1.400       .  A
C1457      C1462   1.404       .  A
C1457      H1473   1.083       .  S
C1458      C1459   1.403       .  A
C1458      H1474   1.083       .  S
C1459      C1469   1.407       .  A
C1459      C1460   1.412       .  A
C1460      C1466   1.410       .  A
C1460      C1461   1.417       .  A
C1461      C1463   1.412       .  A
C1461      C1462   1.410       .  A
C1462      C1470   1.406       .  A
C1463      C1472   1.410       .  A
C1463      C1464   1.405       .  A
C1464      C1465   1.402       .  A
C1464      H1475   1.083       .  S
C1465      C1466   1.405       .  A
C1465      H1476   1.084       .  S
C1466      C1467   1.408       .  A
C1467      C1468   1.412       .  A
C1467      H1477   1.084       .  S
C1468      C1469   1.409       .  A
C1469      H1478   1.084       .  S
C1470      C1471   1.411       .  A
C1470      H1479   1.084       .  S
C1471      C1472   1.412       .  A
C1472      H1480   1.084       .  S
C1481      C1482   1.403       .  A
C1481      C1486   1.406       .  A
C1481      H1497   1.083       .  S
C1482      C1483   1.404       .  A
C1482      H1498   1.084       .  S
C1483      C1493   1.412       .  A
C1483      C1484   1.415       .  A
C1484      C1490   1.409       .  A
C1484      C1485   1.414       .  A
C1485      C1487   1.413       .  A
C1485      C1486   1.410       .  A
C1486      C1494   1.408       .  A
C1487      C1496   1.402       .  A
C1487      C1488   1.402       .  A
C1488      C1489   1.397       .  A
C1488      H1499   1.084       .  S
C1489      C1490   1.403       .  A
C1489      H1500   1.083       .  S
C1490      C1491   1.398       .  A
C1491      C1492   1.406       .  A
C1491      H1501   1.085       .  S
C1492      C1493   1.406       .  A
C1493      H1502   1.084       .  S
C1494      C1495   1.410       .  A
C1494      H1503   1.084       .  S
C1495      C1496   1.405       .  A
C1496      H1504   1.084       .  S
C1505      C1506   1.403   1_455  A
C1505      C1510   1.406       .  A
C1505      H1521   1.083       .  S
C1506      C1507   1.405       .  A
C1506      H1522   1.083       .  S
C1507      C1517   1.410       .  A
C1507      C1508   1.411       .  A
C1508      C1514   1.411       .  A
C1508      C1509   1.417   1_655  A
C1509      C1511   1.410       .  A
C1509      C1510   1.412       .  A
C1510      C1518   1.411       .  A
C1511      C1520   1.405       .  A
C1511      C1512   1.404       .  A
C1512      C1513   1.399   1_455  A
C1512      H1523   1.083       .  S
C1513      C1514   1.404       .  A
C1513      H1524   1.084       .  S
C1514      C1515   1.405       .  A
C1515      C1516   1.410       .  A
C1515      H1525   1.084       .  S
C1516      C1517   1.412       .  A
C1517      H1526   1.084       .  S
C1518      C1519   1.412       .  A
C1518      H1527   1.084       .  S
C1519      C1520   1.411       .  A
C1520      H1528   1.084       .  S
C1529      C1530   1.404       .  A
C1529      C1534   1.405       .  A
C1529      H1545   1.083       .  S
C1530      C1531   1.406       .  A
C1530      H1546   1.083       .  S
C1531      C1541   1.409       .  A
C1531      C1532   1.411       .  A
C1532      C1538   1.413       .  A
C1532      C1533   1.415       .  A
C1533      C1535   1.410       .  A
C1533      C1534   1.414       .  A
C1534      C1542   1.413       .  A
C1535      C1544   1.399       .  A
C1535      C1536   1.403       .  A
C1536      C1537   1.397       .  A
C1536      H1547   1.083       .  S
C1537      C1538   1.402       .  A
C1537      H1548   1.084       .  S
C1538      C1539   1.403       .  A
C1539      C1540   1.405       .  A
C1539      H1549   1.084       .  S
C1540      C1541   1.410       .  A
C1541      H1550   1.084       .  S
C1542      C1543   1.407       .  A
C1542      H1551   1.084       .  S
C1543      C1544   1.406       .  A
C1544      H1552   1.085       .  S
C1553      C1554   1.400       .  A
C1553      C1558   1.404       .  A
C1553      H1569   1.084       .  S
C1554      C1555   1.404       .  A
C1554      H1570   1.083       .  S
C1555      C1565   1.404       .  A
C1555      C1556   1.411       .  A
C1556      C1562   1.412       .  A
C1556      C1557   1.414       .  A
C1557      C1559   1.410       .  A
C1557      C1558   1.413       .  A
C1558      C1566   1.407       .  A
C1559      C1568   1.403       .  A
C1559      C1560   1.404       .  A
C1560      C1561   1.399       .  A
C1560      H1571   1.083       .  S
C1561      C1562   1.403       .  A
C1561      H1572   1.084       .  S
C1562      C1563   1.405       .  A
C1563      C1564   1.407       .  A
C1563      H1573   1.085       .  S
C1564      C1565   1.407       .  A
C1565      H1574   1.084       .  S
C1566      C1567   1.407       .  A
C1566      H1575   1.085       .  S
C1567      C1568   1.408       .  A
C1568      H1576   1.084       .  S
C1577      C1578   1.399       .  A
C1577      C1582   1.404       .  A
C1577      H1593   1.083       .  S
C1578      C1579   1.403       .  A
C1578      H1594   1.084       .  S
C1579      C1589   1.404       .  A
C1579      C1580   1.412       .  A
C1580      C1586   1.411       .  A
C1580      C1581   1.414       .  A
C1581      C1583   1.412       .  A
C1581      C1582   1.411       .  A
C1582      C1590   1.404       .  A
C1583      C1592   1.406       .  A
C1583      C1584   1.404       .  A
C1584      C1585   1.400       .  A
C1584      H1595   1.084       .  S
C1585      C1586   1.404       .  A
C1585      H1596   1.083       .  S
C1586      C1587   1.404       .  A
C1587      C1588   1.407       .  A
C1587      H1597   1.084       .  S
C1588      C1589   1.406       .  A
C1589      H1598   1.085       .  S
C1590      C1591   1.408       .  A
C1590      H1599   1.084       .  S
C1591      C1592   1.407       .  A
C1592      H1600   1.084       .  S
C1601      C1602   1.400       .  A
C1601      C1606   1.403       .  A
C1601      H1617   1.083       .  S
C1602      C1603   1.404       .  A
C1602      H1618   1.083       .  S
C1603      C1613   1.404       .  A
C1603      C1604   1.411       .  A
C1604      C1610   1.412       .  A
C1604      C1605   1.411       .  A
C1605      C1607   1.409       .  A
C1605      C1606   1.414       .  A
C1606      C1614   1.408       .  A
C1607      C1616   1.397       .  A
C1607      C1608   1.403       .  A
C1608      C1609   1.397       .  A
C1608      H1619   1.084       .  S
C1609      C1610   1.403       .  A
C1609      H1620   1.084       .  S
C1610      C1611   1.402       .  A
C1611      C1612   1.406       .  A
C1611      H1621   1.084       .  S
C1612      C1613   1.406       .  A
C1613      H1622   1.084       .  S
C1614      C1615   1.404       .  A
C1614      H1623   1.084       .  S
C1615      C1616   1.406       .  A
C1616      H1624   1.085       .  S
C1625      C1626   1.404       .  A
C1625      C1630   1.405       .  A
C1625      H1641   1.083       .  S
C1626      C1627   1.406       .  A
C1626      H1642   1.083       .  S
C1627      C1637   1.410       .  A
C1627      C1628   1.411       .  A
C1628      C1634   1.412       .  A
C1628      C1629   1.414       .  A
C1629      C1631   1.409       .  A
C1629      C1630   1.414       .  A
C1630      C1638   1.414       .  A
C1631      C1640   1.397       .  A
C1631      C1632   1.403       .  A
C1632      C1633   1.396       .  A
C1632      H1643   1.084       .  S
C1633      C1634   1.402       .  A
C1633      H1644   1.084       .  S
C1634      C1635   1.399       .  A
C1635      C1636   1.405       .  A
C1635      H1645   1.084       .  S
C1636      C1637   1.409       .  A
C1637      H1646   1.084       .  S
C1638      C1639   1.408       .  A
C1638      H1647   1.084       .  S
C1639      C1640   1.407       .  A
C1640      H1648   1.085       .  S
