geometry optimzed in LAMMPS
_audit_creation_date              2020-11-30 
_audit_creation_method            'lammps2cif' 
_symmetry_space_group_name_H-M    'P1' 
_symmetry_Int_Tables_number       1 
_symmetry_cell_setting            triclinic 
loop_ 
_symmetry_equiv_pos_as_xyz 
  x,y,z 
_cell_length_a                    32.36820059 
_cell_length_b                    32.30745862080695 
_cell_length_c                    66.58098473563122 
_cell_angle_alpha                 90.23886583207047 
_cell_angle_beta                  90.3711217488731 
_cell_angle_gamma                 89.56064327325217 
loop_ 
_atom_site_label 
_atom_site_type_symbol 
_atom_site_fract_x 
_atom_site_fract_y 
_atom_site_fract_z 
_atom_site_charge 
N1          N  0.00335527  0.60748191  0.02863142    -0.26700
N2          N  0.98238489  0.57870597  0.03816421    -0.34500
C3          C  0.99176899  0.57979265  0.05771028     0.01700
C4          C  0.01948849  0.61135593  0.06110603     0.07700
C5          C  0.02675789  0.62802475  0.04225439    -0.05400
H6          H  0.97759032  0.56004153  0.06873645     0.08400
H7          H  0.04548842  0.65468316  0.03891046     0.09600
Cu8        Cu  0.93631813  0.54234924  0.02651968     0.44200
Cu9        Cu  0.99395483  0.61913530  0.99800695     0.42000
Cu10       Cu  0.89916300  0.56519747  0.97974756     0.43900
N11         N  0.89002349  0.50783973  0.01380458    -0.34100
N12         N  0.87587062  0.51609966  0.99567113    -0.28300
C13         C  0.85361626  0.48379113  0.98903074    -0.04400
C14         C  0.85381536  0.45374019  0.00380956     0.07800
C15         C  0.87695460  0.47037038  0.01942696     0.01600
H16         H  0.84269349  0.48023010  0.97373090     0.09200
H17         H  0.88834530  0.45438404  0.03261085     0.08300
N18         N  0.93416586  0.60591519  0.96335562    -0.35500
N19         N  0.96936617  0.62341608  0.96888535    -0.27700
C20         C  0.98490695  0.64357947  0.95290547    -0.02900
C21         C  0.95773538  0.63861995  0.93687453     0.05700
C22         C  0.92610858  0.61494738  0.94412367     0.03800
H23         H  0.01368038  0.66039616  0.95297147     0.08900
H24         H  0.89979970  0.60348535  0.93573613     0.07700
N25         N  0.78333358  0.99713192  0.03240548    -0.26700
N26         N  0.74749812  0.99915504  0.04184356    -0.34500
C27         C  0.75348968  0.99194147  0.06141864     0.01700
C28         C  0.79505721  0.98545409  0.06468801     0.07700
C29         C  0.81339687  0.98931668  0.04606059    -0.05400
H30         H  0.72928507  0.99216191  0.07255565     0.08400
H31         H  0.84582802  0.98558438  0.04260460     0.09600
Cu32       Cu  0.69112044  0.01397865  0.02930633     0.44200
Cu33       Cu  0.78826367  0.00163541  0.00122532     0.42000
Cu34       Cu  0.68727344  0.02048279  0.97740326     0.43900
N35         N  0.63912975  0.03503903  0.01457521    -0.34100
N36         N  0.63785886  0.03789346  0.99484828    -0.28300
C37         C  0.60043872  0.05182226  0.98912540    -0.04400
C38         C  0.57700641  0.05804549  0.00624300     0.07800
C39         C  0.60254359  0.04707791  0.02209510     0.01600
H40         H  0.59089195  0.05572056  0.97365244     0.09200
H41         H  0.59471195  0.04666426  0.03787124     0.08300
N42         N  0.73996383  0.00319486  0.96230656    -0.35500
N43         N  0.77723828  0.99853292  0.97031048    -0.27700
C44         C  0.80397011  0.98867143  0.95553124    -0.02900
C45         C  0.78194893  0.98617520  0.93767013     0.05700
C46         C  0.74167456  0.99560369  0.94254255     0.03800
H47         H  0.83657361  0.98247446  0.95772887     0.08900
H48         H  0.71546682  0.99733712  0.93239855     0.07700
N49         N  0.80877180  0.45928166  0.53298743    -0.26700
N50         N  0.83081175  0.48975029  0.54077805    -0.34500
C51         C  0.83359292  0.48519612  0.56067435     0.01700
C52         C  0.81185628  0.45036942  0.56610399     0.07700
C53         C  0.79666497  0.43443099  0.54811294    -0.05400
H54         H  0.84983779  0.50661876  0.57034163     0.08400
H55         H  0.77723542  0.40757584  0.54624885     0.09600
Cu56       Cu  0.85561404  0.53904350  0.52577614     0.44200
Cu57       Cu  0.79545798  0.45560174  0.50217215     0.42000
Cu58       Cu  0.82775876  0.55256036  0.47693791     0.43900
N59         N  0.88259911  0.58431159  0.50886105    -0.34100
N60         N  0.87219973  0.58949301  0.48989264    -0.28300
C61         C  0.90114836  0.61236801  0.48085830    -0.04400
C62         C  0.93130710  0.62205138  0.49491817     0.07800
C63         C  0.91817816  0.60397861  0.51261299     0.01600
H64         H  0.90305757  0.61670593  0.46478387     0.09200
H65         H  0.93591323  0.60006273  0.52630734     0.08300
N66         N  0.79833782  0.50354862  0.46326520    -0.35500
N67         N  0.78859441  0.46763002  0.47139522    -0.27700
C68         C  0.77647019  0.44167855  0.45653056    -0.02900
C69         C  0.77855152  0.46257265  0.43837824     0.05700
C70         C  0.79253734  0.50160406  0.44339653     0.03800
H71         H  0.76808720  0.40966285  0.45868220     0.08900
H72         H  0.80091651  0.52624132  0.43330336     0.07700
N73         N  0.52116085  0.72622601  0.53195900    -0.26700
N74         N  0.54845373  0.75049762  0.54094675    -0.34500
C75         C  0.54333190  0.74890703  0.56084402     0.01700
C76         C  0.51145032  0.72216053  0.56497536     0.07700
C77         C  0.49768547  0.70857317  0.54627969    -0.05400
H78         H  0.56197087  0.76603344  0.57150170     0.08400
H79         H  0.47328413  0.68661989  0.54335454     0.09600
Cu80       Cu  0.59449863  0.78417062  0.52758555     0.44200
Cu81       Cu  0.51953630  0.71730549  0.50061336     0.42000
Cu82       Cu  0.61309765  0.76144879  0.47817378     0.43900
N83         N  0.64091398  0.81347632  0.51228507    -0.34100
N84         N  0.64854948  0.80413399  0.49339413    -0.28300
C85         C  0.67492269  0.83189484  0.48588913    -0.04400
C86         C  0.68433960  0.86023439  0.50082626     0.07800
C87         C  0.66230271  0.84740231  0.51747110     0.01600
H88         H  0.68287499  0.83407307  0.47016414     0.09200
H89         H  0.65833630  0.86388093  0.53150959     0.08300
N90         N  0.56755866  0.73073192  0.46244354    -0.35500
N91         N  0.53264824  0.71604299  0.46967063    -0.27700
C92         C  0.50919209  0.70280032  0.45402414    -0.02900
C93         C  0.53079254  0.70928270  0.43631035     0.05700
C94         C  0.56745838  0.72715203  0.44242843     0.03800
H95         H  0.47851359  0.69010469  0.45538480     0.08900
H96         H  0.59175143  0.73893889  0.43301749     0.07700
N97         N  0.57578189  0.13324509  0.53341171    -0.26700
N98         N  0.61162775  0.12057224  0.54096872    -0.34500
C99         C  0.61174140  0.12611890  0.56086287     0.01700
C100        C  0.57429984  0.14265431  0.56640035     0.07700
C101        C  0.55189793  0.14698736  0.54867138    -0.05400
H102        H  0.63694880  0.11720372  0.57073139     0.08400
H103        H  0.52080633  0.15903734  0.54696731     0.09600
Cu104      Cu  0.65785547  0.08905430  0.52626794     0.44200
Cu105      Cu  0.56211146  0.13082583  0.50267499     0.42000
Cu106      Cu  0.64130000  0.06874360  0.47679273     0.43900
N107        N  0.68736549  0.04006607  0.51264093    -0.34100
N108        N  0.68080521  0.03221893  0.49347594    -0.28300
C109        C  0.69195333  0.99297862  0.48949041    -0.04400
C110        C  0.70552809  0.97483108  0.50722949     0.07800
C111        C  0.70260486  0.00589648  0.52153422     0.01600
H112        H  0.68405993  0.97720116  0.47564927     0.09200
H113        H  0.70482818  0.00193971  0.53764015     0.08300
N114        N  0.59499876  0.10193412  0.46271609    -0.35500
N115        N  0.56566948  0.12414819  0.47146833    -0.27700
C116        C  0.54164240  0.14129291  0.45701008    -0.02900
C117        C  0.55688426  0.12924847  0.43841888     0.05700
C118        C  0.59053516  0.10412081  0.44277446     0.03800
H119        H  0.51559662  0.16164901  0.45979701     0.08900
H120        H  0.61076935  0.08831854  0.43236770     0.07700
N121        N  0.19697712  0.48481430  0.46811280    -0.26700
N122        N  0.17499346  0.51354946  0.45864548    -0.34500
C123        C  0.17974852  0.50903033  0.43878182     0.01700
C124        C  0.20604645  0.47592768  0.43529877     0.07700
C125        C  0.21614097  0.46097724  0.45422535    -0.05400
H126        H  0.16501797  0.52870869  0.42770388     0.08400
H127        H  0.23692901  0.43556969  0.45765620     0.09600
Cu128      Cu  0.13897589  0.55920539  0.47171399     0.44200
Cu129      Cu  0.20214380  0.48165617  0.49954300     0.42000
Cu130      Cu  0.15555112  0.57406016  0.52229205     0.43900
N131        N  0.10258580  0.59962989  0.48804776    -0.34100
N132        N  0.10952546  0.60578307  0.50733983    -0.28300
C133        C  0.07675493  0.62517230  0.51543402    -0.04400
C134        C  0.04741729  0.63121448  0.50052524     0.07800
C135        C  0.06512569  0.61496534  0.48322962     0.01600
H136        H  0.07217124  0.62910599  0.53141775     0.09200
H137        H  0.04998313  0.60948217  0.46895125     0.08300
N138        N  0.18905358  0.53008118  0.53776270    -0.35500
N139        N  0.20396667  0.49491225  0.53044150    -0.27700
C140        C  0.21978175  0.47251119  0.54586885    -0.02900
C141        C  0.21463141  0.49534982  0.56343720     0.05700
C142        C  0.19536216  0.53141819  0.55761509     0.03800
H143        H  0.23423538  0.44236260  0.54437995     0.08900
H144        H  0.18535322  0.55653270  0.56727467     0.07700
N145        N  0.74764487  0.85500686  0.80176958    -0.26700
N146        N  0.74747427  0.87206971  0.78371538    -0.34500
C147        C  0.74297028  0.84170555  0.76989662     0.01700
C148        C  0.73969907  0.80411408  0.77979816     0.07700
C149        C  0.74268845  0.81387016  0.79994542    -0.05400
H150        H  0.74285640  0.84650195  0.75382554     0.08400
H151        H  0.74327540  0.79240342  0.81237926     0.09600
Cu152      Cu  0.75395972  0.93614077  0.77885403     0.44200
Cu153      Cu  0.75877916  0.88631569  0.82839531     0.42000
Cu154      Cu  0.77320638  0.99404560  0.82519495     0.43900
N155        N  0.75678321  0.00124589  0.78042561    -0.34100
N156        N  0.76170677  0.02123178  0.79766181    -0.28300
C157        C  0.75981707  0.06215697  0.79443082    -0.04400
C158        C  0.75422026  0.06886561  0.77416066     0.07800
C159        C  0.75265625  0.02955898  0.76560133     0.01600
H160        H  0.76350111  0.08546216  0.80601288     0.09200
H161        H  0.74839234  0.02214532  0.74986748     0.08300
N162        N  0.78077248  0.96227396  0.85183854    -0.35500
N163        N  0.77357493  0.92223027  0.85314280    -0.27700
C164        C  0.77399453  0.91122186  0.87257992    -0.02900
C165        C  0.78266707  0.94588479  0.88402737     0.05700
C166        C  0.78676994  0.97779621  0.87039804     0.03800
H167        H  0.76585631  0.88088253  0.87804076     0.08900
H168        H  0.78957073  0.01042970  0.87382624     0.07700
O169        O  0.80183479  0.20357929  0.77372603    -0.72300
O170        O  0.68399462  0.19346136  0.75380826    -0.73300
O171        O  0.74145837  0.14117549  0.77511157    -0.61900
O172        O  0.74533791  0.25659311  0.75260971    -0.70300
O173        O  0.76938240  0.23071854  0.72401383    -0.69900
O174        O  0.76415712  0.11466503  0.74638583    -0.61100
O175        O  0.70862102  0.16855124  0.72513691    -0.73700
O176        O  0.82586655  0.17770968  0.74512575    -0.72400
Cu177      Cu  0.74233147  0.19955262  0.76482011     1.04600
Cu178      Cu  0.76775597  0.17199688  0.73416199     1.04300
C179        C  0.83219411  0.19190482  0.76280566     0.93900
C180        C  0.67805869  0.18004008  0.73593880     0.93000
C181        C  0.75272680  0.10995405  0.76457640     0.85200
C182        C  0.75778635  0.26174731  0.73462563     0.91400
O183        O  0.69510949  0.70362240  0.73189518    -0.72300
O184        O  0.81223318  0.69353846  0.75161187    -0.73300
O185        O  0.75668914  0.64146483  0.73046869    -0.61900
O186        O  0.75023847  0.75660763  0.75289882    -0.70300
O187        O  0.72769093  0.73135699  0.78174387    -0.69900
O188        O  0.73267219  0.61487346  0.75872434    -0.61100
O189        O  0.78846607  0.66769834  0.78009879    -0.73700
O190        O  0.67064486  0.67866582  0.76041725    -0.72400
Cu191      Cu  0.75421900  0.69966990  0.74074796     1.04600
Cu192      Cu  0.72898695  0.67227998  0.77129576     1.04300
C193        C  0.66463654  0.69248703  0.74267656     0.93900
C194        C  0.81869047  0.67899278  0.76916509     0.93000
C195        C  0.74595973  0.61014534  0.74079931     0.85200
C196        C  0.73872342  0.76212927  0.77101379     0.91400
N197        N  0.07806109  0.67385695  0.79839446    -0.26700
N198        N  0.05854345  0.67909091  0.78101273    -0.34500
C199        C  0.08711636  0.68122594  0.76632694     0.01700
C200        C  0.12606173  0.67663197  0.77496177     0.07700
C201        C  0.11892868  0.67194958  0.79521358    -0.05400
H202        H  0.08008364  0.68562287  0.75056875     0.08400
H203        H  0.14193268  0.66833035  0.80695233     0.09600
Cu204      Cu  0.99369408  0.68176922  0.77809129     0.44200
Cu205      Cu  0.05131077  0.67135333  0.82656137     0.42000
Cu206      Cu  0.94356800  0.66902144  0.82618615     0.43900
N207        N  0.92920313  0.67796456  0.78157198    -0.34100
N208        N  0.91217459  0.67149158  0.79927911    -0.28300
C209        C  0.87099217  0.66977995  0.79724234    -0.04400
C210        C  0.86099572  0.67597263  0.77734247     0.07800
C211        C  0.89861626  0.68113042  0.76771744     0.01600
H212        H  0.84975554  0.66578899  0.80955909     0.09200
H213        H  0.90333048  0.68707045  0.75192184     0.08300
N214        N  0.97717262  0.67006995  0.85249116    -0.35500
N215        N  0.01787012  0.67066152  0.85296541    -0.27700
C216        C  0.03071633  0.66917275  0.87225007    -0.02900
C217        C  0.99619468  0.66747114  0.88443174     0.05700
C218        C  0.96277370  0.66832246  0.87128549     0.03800
H219        H  0.06271889  0.66794408  0.87700858     0.08900
H220        H  0.93031191  0.66659509  0.87485973     0.07700
O221        O  0.22390728  0.63789262  0.72489650    -0.72300
O222        O  0.23442229  0.75343035  0.74713361    -0.73300
O223        O  0.28612190  0.69873168  0.72431057    -0.61900
O224        O  0.17134493  0.69169796  0.74765487    -0.70300
O225        O  0.19862133  0.66590693  0.77563925    -0.69900
O226        O  0.31292751  0.67336183  0.75249001    -0.61100
O227        O  0.26042911  0.72723539  0.77531057    -0.73700
O228        O  0.25044474  0.61137797  0.75289107    -0.72400
Cu229      Cu  0.22798979  0.69633304  0.73502490     1.04600
Cu230      Cu  0.25651455  0.66858274  0.76506049     1.04300
C231        C  0.23598966  0.60661820  0.73512975     0.93900
C232        C  0.24881566  0.75843899  0.76489290     0.93000
C233        C  0.31746655  0.68680929  0.73461472     0.85200
C234        C  0.16711669  0.67792809  0.76549565     0.91400
N235        N  0.09162025  0.19005182  0.79434097    -0.26700
N236        N  0.07184458  0.18760475  0.77684898    -0.34500
C237        C  0.10006467  0.18666880  0.76198714     0.01700
C238        C  0.13912590  0.18919752  0.77051199     0.07700
C239        C  0.13248250  0.19137650  0.79096390    -0.05400
H240        H  0.09265784  0.18455166  0.74615079     0.08400
H241        H  0.15581637  0.19287742  0.80265341     0.09600
Cu242      Cu  0.00723102  0.18689671  0.77321731     0.44200
Cu243      Cu  0.06524391  0.18960261  0.82289599     0.42000
Cu244      Cu  0.95710941  0.19648704  0.82019664     0.43900
N245        N  0.94261879  0.19108243  0.77572179    -0.34100
N246        N  0.92522375  0.19639404  0.79344435    -0.28300
C247        C  0.88405347  0.19849517  0.79127795    -0.04400
C248        C  0.87444407  0.19391413  0.77119912     0.07800
C249        C  0.91234523  0.18914337  0.76164915     0.01600
H250        H  0.86256703  0.20165715  0.80358450     0.09200
H251        H  0.91744445  0.18430782  0.74576707     0.08300
N252        N  0.98838153  0.19035978  0.84695645    -0.35500
N253        N  0.02895225  0.18770812  0.84863825    -0.27700
C254        C  0.03900737  0.18495381  0.86835052    -0.02900
C255        C  0.00256185  0.18585756  0.87930312     0.05700
C256        C  0.97141907  0.18931387  0.86520617     0.03800
H257        H  0.07023235  0.18371253  0.87421845     0.08900
H258        H  0.93862362  0.19203290  0.86804364     0.07700
O259        O  0.18355735  0.17477415  0.74259684    -0.72300
O260        O  0.29825171  0.16609912  0.71881643    -0.73300
O261        O  0.24617950  0.11198834  0.74115574    -0.61900
O262        O  0.23565845  0.22775568  0.71964558    -0.70300
O263        O  0.26230237  0.25385399  0.74772206    -0.69900
O264        O  0.27245380  0.13763303  0.76942247    -0.61100
O265        O  0.32492681  0.19101766  0.74714193    -0.73700
O266        O  0.21139008  0.19989309  0.77061474    -0.72400
Cu267      Cu  0.23999519  0.16930555  0.72954527     1.04600
Cu268      Cu  0.26876165  0.19648614  0.75967480     1.04300
C269        C  0.17976270  0.18816601  0.76062278     0.93900
C270        C  0.32954870  0.17749293  0.72925214     0.93000
C271        C  0.26017246  0.10673857  0.75893693     0.85200
C272        C  0.24743053  0.25887191  0.73004068     0.91400
N273        N  0.25505659  0.85108896  0.79611613    -0.26700
N274        N  0.25099901  0.86855302  0.77818547    -0.34500
C275        C  0.24836491  0.83826885  0.76419995     0.01700
C276        C  0.25141924  0.80028839  0.77374142     0.07700
C277        C  0.25574420  0.80970490  0.79388003    -0.05400
H278        H  0.24458241  0.84352124  0.74825351     0.08400
H279        H  0.25803780  0.78796284  0.80616251     0.09600
Cu280      Cu  0.25006432  0.93280225  0.77272740     0.44200
Cu281      Cu  0.25630723  0.88122288  0.82388122     0.42000
Cu282      Cu  0.25109057  0.98858662  0.81842917     0.43900
N283        N  0.25445956  0.99776628  0.77380515    -0.34100
N284        N  0.25657252  0.01711447  0.79127962    -0.28300
C285        C  0.26051042  0.05789450  0.78841550    -0.04400
C286        C  0.26034279  0.06530378  0.76807788     0.07800
C287        C  0.25622019  0.02649609  0.75911088     0.01600
H288        H  0.26172725  0.08068406  0.80035967     0.09200
H289        H  0.25436616  0.01977750  0.74320103     0.08300
N290        N  0.24820555  0.96078003  0.84585079    -0.35500
N291        N  0.25137046  0.92049654  0.84864665    -0.27700
C292        C  0.25298821  0.91316602  0.86861233    -0.02900
C293        C  0.25065042  0.95110196  0.87850553     0.05700
C294        C  0.24762439  0.98027039  0.86358210     0.03800
H295        H  0.25802098  0.88306683  0.87529008     0.08900
H296        H  0.24770518  0.01356649  0.86542985     0.07700
N297        N  0.23711421  0.35036501  0.69862176    -0.26700
N298        N  0.24298345  0.36850754  0.71631086    -0.34500
C299        C  0.24768434  0.33882603  0.73039345     0.01700
C300        C  0.24417266  0.30049027  0.72112944     0.07700
C301        C  0.23742142  0.30911006  0.70107723    -0.05400
H302        H  0.25295940  0.34473117  0.74620570     0.08400
H303        H  0.23373792  0.28690127  0.68899922     0.09600
Cu304      Cu  0.24330184  0.43288008  0.72096982     0.44200
Cu305      Cu  0.23110082  0.37976594  0.67095847     0.42000
Cu306      Cu  0.23081619  0.48809285  0.67468292     0.43900
N307        N  0.23818321  0.49763369  0.71958499    -0.34100
N308        N  0.23206483  0.51681779  0.70231276    -0.28300
C309        C  0.22927083  0.55773367  0.70550880    -0.04400
C310        C  0.23428131  0.56524537  0.72576926     0.07800
C311        C  0.24000677  0.52643578  0.73435596     0.01600
H312        H  0.22525127  0.58051619  0.69377314     0.09200
H313        H  0.24538312  0.51971627  0.75006494     0.08300
N314        N  0.23166190  0.45772343  0.64746250    -0.35500
N315        N  0.23091692  0.41710357  0.64557255    -0.27700
C316        C  0.23033573  0.40736380  0.62582646    -0.02900
C317        C  0.23093704  0.44384938  0.61486401     0.05700
C318        C  0.23183259  0.47506435  0.62923555     0.03800
H319        H  0.22897549  0.37617950  0.61989136     0.08900
H320        H  0.23167797  0.50813552  0.62689073     0.07700
N321        N  0.42178169  0.17279539  0.69831124    -0.26700
N322        N  0.43920933  0.17866253  0.71618996    -0.34500
C323        C  0.40899498  0.18085353  0.73004113     0.01700
C324        C  0.37118686  0.17574270  0.72044498     0.07700
C325        C  0.38057355  0.17066658  0.70041739    -0.05400
H326        H  0.41415804  0.18585041  0.74593458     0.08400
H327        H  0.35893046  0.16668275  0.68811929     0.09600
Cu328      Cu  0.50336373  0.18284974  0.72174402     0.44200
Cu329      Cu  0.45159841  0.16970757  0.67083814     0.42000
Cu330      Cu  0.55886013  0.17655023  0.67604422     0.43900
N331        N  0.56848267  0.18146671  0.72091478    -0.34100
N332        N  0.58766118  0.17768635  0.70354737    -0.28300
C333        C  0.62855095  0.17582291  0.70659799    -0.04400
C334        C  0.63629635  0.17901911  0.72690612     0.07800
C335        C  0.59745477  0.18279553  0.73568884     0.01600
H336        H  0.65114798  0.17320578  0.69474191     0.09200
H337        H  0.59083647  0.18602234  0.75152537     0.08300
N338        N  0.53022575  0.17330997  0.64853829    -0.35500
N339        N  0.48997117  0.16995716  0.64605428    -0.27700
C340        C  0.48163480  0.16595509  0.62625559    -0.02900
C341        C  0.51875470  0.16663134  0.61594987     0.05700
C342        C  0.54877069  0.17168478  0.63067037     0.03800
H343        H  0.45111271  0.16163489  0.61991325     0.08900
H344        H  0.58186227  0.17329827  0.62882147     0.07700
N345        N  0.40964278  0.69187083  0.70343122    -0.26700
N346        N  0.42703621  0.68582492  0.72131295    -0.34500
C347        C  0.39690415  0.68305581  0.73514494     0.01700
C348        C  0.35901698  0.68805591  0.72563076     0.07700
C349        C  0.36833452  0.69359984  0.70559819    -0.05400
H350        H  0.40223319  0.67823232  0.75102490     0.08400
H351        H  0.34658409  0.69807423  0.69337528     0.09600
Cu352      Cu  0.49094806  0.68369531  0.72732465     0.44200
Cu353      Cu  0.44018831  0.69699538  0.67594333     0.42000
Cu354      Cu  0.54626207  0.70708809  0.68322151     0.43900
N355        N  0.55546698  0.69060218  0.72734589    -0.34100
N356        N  0.57436054  0.70113230  0.71063688    -0.28300
C357        C  0.61498832  0.70419476  0.71398988    -0.04400
C358        C  0.62286969  0.69493863  0.73380670     0.07800
C359        C  0.58438384  0.68631183  0.74200486     0.01600
H360        H  0.63740439  0.71134296  0.70254903     0.09200
H361        H  0.57802593  0.67719627  0.75728587     0.08300
N362        N  0.52039689  0.70571856  0.65512983    -0.35500
N363        N  0.48045731  0.70176505  0.65167567    -0.27700
C364        C  0.47389663  0.70265591  0.63159034    -0.02900
C365        C  0.51195042  0.70734411  0.62229106     0.05700
C366        C  0.54041780  0.70914405  0.63771613     0.03800
H367        H  0.44386294  0.70126176  0.62441458     0.08900
H368        H  0.57339551  0.71362221  0.63641135     0.07700
N369        N  0.76302223  0.35416446  0.70361237    -0.26700
N370        N  0.75441676  0.37163564  0.72117709    -0.34500
C371        C  0.75110759  0.34145393  0.73504378     0.01700
C372        C  0.75830069  0.30354650  0.72577380     0.07700
C373        C  0.76569940  0.31292211  0.70592658    -0.05400
H374        H  0.74439375  0.34674293  0.75074768     0.08400
H375        H  0.77252983  0.29126639  0.69393831     0.09600
Cu376      Cu  0.74925426  0.43593611  0.72610498     0.44200
Cu377      Cu  0.77239684  0.38454265  0.67656512     0.42000
Cu378      Cu  0.78239638  0.49181299  0.68293485     0.35900
N379        N  0.75144549  0.50099251  0.72529313    -0.34100
N380        N  0.76439167  0.52038418  0.70909886    -0.28300
C381        C  0.76366326  0.56133352  0.71230539    -0.04400
C382        C  0.74969962  0.56875056  0.73150950     0.07800
C383        C  0.74210417  0.52975333  0.73943472     0.01600
H384        H  0.77298308  0.58412672  0.70139736     0.09200
H385        H  0.73114534  0.52284819  0.75435507     0.08300
N386        N  0.79240732  0.46290405  0.65586331    -0.35500
N387        N  0.78692613  0.42296008  0.65275064    -0.27700
C388        C  0.79322218  0.41456497  0.63310876    -0.02900
C389        C  0.80338419  0.45134656  0.62370698     0.05700
C390        C  0.80275365  0.48104852  0.63860503     0.03800
H391        H  0.79099110  0.38417855  0.62632052     0.08900
H392        H  0.80856426  0.51379737  0.63694083     0.07700
N393        N  0.28473919  0.95980765  0.96742787    -0.26700
N394        N  0.30889344  0.98555757  0.95759836    -0.34500
C395        C  0.30313706  0.98049987  0.93785300     0.01700
C396        C  0.27395420  0.95016129  0.93482286     0.07700
C397        C  0.26305899  0.93732517  0.95389252    -0.05400
H398        H  0.31987691  0.99725245  0.92650597     0.08400
H399        H  0.24076053  0.91386598  0.95765172     0.09600
Cu400      Cu  0.35192689  0.02545473  0.96960065     0.44200
Cu401      Cu  0.28260378  0.95734813  0.99872610     0.42000
Cu402      Cu  0.35526026  0.03254514  0.02061107     0.43900
N403        N  0.39989537  0.05525610  0.98384940    -0.34100
N404        N  0.40102921  0.05785316  0.00357649    -0.28300
C405        C  0.43900028  0.06909004  0.00954340    -0.04400
C406        C  0.46318064  0.07348239  0.99258376     0.07800
C407        C  0.43715267  0.06499559  0.97654990     0.01600
H408        H  0.44913447  0.06919357  0.02504918     0.09200
H409        H  0.44606343  0.06095177  0.96102784     0.08300
N410        N  0.31601151  0.99594992  0.03665310    -0.35500
N411        N  0.29045597  0.96769783  0.02946345    -0.27700
C412        C  0.27248828  0.94845152  0.04508119    -0.02900
C413        C  0.28739698  0.96596809  0.06271805     0.05700
C414        C  0.31504253  0.99565238  0.05669208     0.03800
H415        H  0.25035921  0.92365996  0.04370566     0.08900
H416        H  0.33433398  0.01495832  0.06610967     0.07700
N417        N  0.00854600  0.19515800  0.97020658    -0.26700
N418        N  0.97858230  0.21883435  0.96282644    -0.34500
C419        C  0.97988616  0.21817349  0.94277941     0.01700
C420        C  0.01198330  0.19269908  0.93681350     0.07700
C421        C  0.02990217  0.17878999  0.95461472    -0.05400
H422        H  0.95894542  0.23567002  0.93328965     0.08400
H423        H  0.05608840  0.15799944  0.95610078     0.09600
Cu424      Cu  0.93516293  0.25254855  0.97846094     0.44200
Cu425      Cu  0.01737396  0.18680017  0.00128707     0.42000
Cu426      Cu  0.92551579  0.22968236  0.02741899     0.43900
N427        N  0.89424137  0.28537684  0.99594861    -0.34100
N428        N  0.89029570  0.27642506  0.01508990    -0.28300
C429        C  0.87007122  0.30751284  0.02434279    -0.04400
C430        C  0.86062164  0.33748016  0.01020099     0.07800
C431        C  0.87626441  0.32215957  0.99227039     0.01600
H432        H  0.86725660  0.31054977  0.04047014     0.09200
H433        H  0.87949095  0.33878099  0.97830838     0.08300
N434        N  0.97530314  0.20137555  0.04102513    -0.35500
N435        N  0.01000403  0.18823031  0.03266903    -0.27700
C436        C  0.03762610  0.18003608  0.04755213    -0.02900
C437        C  0.01922816  0.18924350  0.06590841     0.05700
C438        C  0.97958676  0.20180621  0.06095127     0.03800
H439        H  0.06924631  0.17021285  0.04517217     0.08900
H440        H  0.95554095  0.21257582  0.07090847     0.07700
N441        N  0.11297582  0.68342463  0.19760116    -0.26700
N442        N  0.09497485  0.69125256  0.21507739    -0.34500
C443        C  0.12479905  0.69713018  0.22907348     0.01700
C444        C  0.16304289  0.69231312  0.22001339     0.07700
C445        C  0.15421879  0.68369669  0.20012801    -0.05400
H446        H  0.11906919  0.70359278  0.24477034     0.08400
H447        H  0.17625368  0.67781641  0.18827990     0.09600
Cu448      Cu  0.03058543  0.69081615  0.21993037     0.44200
Cu449      Cu  0.08344029  0.67075008  0.17042346     0.42000
Cu450      Cu  0.97904155  0.64694714  0.17771574     0.43900
N451        N  0.96623525  0.68107711  0.21922952    -0.34100
N452        N  0.94850623  0.66361389  0.20343847    -0.28300
C453        C  0.90759354  0.66149734  0.20621748    -0.04400
C454        C  0.89844336  0.67837584  0.22471646     0.07800
C455        C  0.93640534  0.69051644  0.23268939     0.01600
H456        H  0.88592544  0.64939833  0.19527264     0.09200
H457        H  0.94176376  0.70570798  0.24697048     0.08300
N458        N  0.00696407  0.64193538  0.15024505    -0.35500
N459        N  0.04564921  0.65212444  0.14677232    -0.27700
C460        C  0.05336169  0.64689547  0.12699202    -0.02900
C461        C  0.01740792  0.63270047  0.11788991     0.05700
C462        C  0.98895279  0.62987787  0.13309159     0.03800
H463        H  0.08285905  0.65219480  0.11994450     0.08900
H464        H  0.95723719  0.61979983  0.13178376     0.07700
O465        O  0.32378586  0.71891813  0.27069626    -0.72300
O466        O  0.20903650  0.70918770  0.24705428    -0.73300
O467        O  0.26341224  0.65677417  0.26935509    -0.61900
O468        O  0.26980916  0.77237669  0.24849171    -0.70300
O469        O  0.29548891  0.74793063  0.21992758    -0.69900
O470        O  0.29061736  0.63089596  0.24144142    -0.61100
O471        O  0.23614079  0.68407856  0.21895824    -0.73700
O472        O  0.35118347  0.69537079  0.24236402    -0.72400
Cu473      Cu  0.26563150  0.71514297  0.25984144     1.04600
Cu474      Cu  0.29436712  0.68874565  0.22964566     1.04300
C475        C  0.35543186  0.70818364  0.26046395     0.93900
C476        C  0.20460798  0.69524026  0.22917683     0.93000
C477        C  0.27625690  0.62581379  0.25910618     0.85200
C478        C  0.28287417  0.77833305  0.23070869     0.91400
O479        O  0.79436978  0.64647936  0.27153238    -0.72300
O480        O  0.79043330  0.76277165  0.25041876    -0.73300
O481        O  0.73483312  0.71056166  0.27140611    -0.61900
O482        O  0.85107352  0.69816116  0.25061937    -0.70300
O483        O  0.82538845  0.67308508  0.22212556    -0.69900
O484        O  0.70875646  0.68756292  0.24258266    -0.61100
O485        O  0.76617117  0.73841691  0.22146951    -0.73700
O486        O  0.76861375  0.62186269  0.24293762    -0.72400
Cu487      Cu  0.79354962  0.70530824  0.26197797     1.04600
Cu488      Cu  0.76637760  0.67946558  0.23123532     1.04300
C489        C  0.78156213  0.61609849  0.26087499     0.93900
C490        C  0.77800977  0.76877399  0.23241623     0.93000
C491        C  0.70366177  0.70076602  0.26054058     0.85200
C492        C  0.85644180  0.68347111  0.23297450     0.91400
N493        N  0.78063905  0.86137403  0.20175671    -0.26700
N494        N  0.78504182  0.87855681  0.21972058    -0.34500
C495        C  0.78395515  0.84832984  0.23364981     0.01700
C496        C  0.77826146  0.81073131  0.22387422     0.07700
C497        C  0.77615730  0.82032218  0.20373794    -0.05400
H498        H  0.78760673  0.85325411  0.24964235     0.08400
H499        H  0.77336772  0.79881245  0.19130858     0.09600
Cu500      Cu  0.79273306  0.94255093  0.22402441     0.44200
Cu501      Cu  0.78567574  0.89203903  0.17478800     0.42000
Cu502      Cu  0.80769024  0.99822843  0.17669668     0.43900
N503        N  0.79517732  0.00737601  0.22167595    -0.34100
N504        N  0.79901889  0.02656480  0.20426025    -0.28300
C505        C  0.79616725  0.06760366  0.20717029    -0.04400
C506        C  0.79085553  0.07513004  0.22737855     0.07800
C507        C  0.79069090  0.03628960  0.23625811     0.01600
H508        H  0.79827027  0.09040803  0.19537013     0.09200
H509        H  0.78660329  0.02955230  0.25202150     0.08300
N510        N  0.80912928  0.96508195  0.15010467    -0.35500
N511        N  0.79907026  0.92560744  0.14941221    -0.27700
C512        C  0.79639946  0.91341897  0.13015503    -0.02900
C513        C  0.80578973  0.94670414  0.11812228     0.05700
C514        C  0.81370146  0.97909727  0.13125156     0.03800
H515        H  0.78574842  0.88333201  0.12526037     0.08900
H516        H  0.81831124  0.01122316  0.12738941     0.07700
O517        O  0.85620416  0.18796189  0.25688298    -0.72300
O518        O  0.73893368  0.17239277  0.27540929    -0.73300
O519        O  0.79812370  0.12194711  0.25501892    -0.61900
O520        O  0.79642477  0.23789145  0.27769456    -0.70300
O521        O  0.77256563  0.26271082  0.24879127    -0.69900
O522        O  0.77446270  0.14681685  0.22608125    -0.61100
O523        O  0.71414844  0.19699094  0.24665251    -0.73700
O524        O  0.83125771  0.21235460  0.22810848    -0.72400
Cu525      Cu  0.79820361  0.17923907  0.26728405     1.04600
Cu526      Cu  0.77225020  0.20552012  0.23640500     1.04300
C527        C  0.86197989  0.20223614  0.23924861     0.93900
C528        C  0.70822536  0.18254499  0.26422019     0.93000
C529        C  0.78724816  0.11639005  0.23673923     0.85200
C530        C  0.78406209  0.26838685  0.26699110     0.91400
N531        N  0.28020233  0.87210161  0.20074843    -0.26700
N532        N  0.27792134  0.88867729  0.21896662    -0.34500
C533        C  0.27867477  0.85777730  0.23253397     0.01700
C534        C  0.28228000  0.82041008  0.22234741     0.07700
C535        C  0.28313429  0.83072957  0.20229373    -0.05400
H536        H  0.27725490  0.86220676  0.24863040     0.08400
H537        H  0.28506735  0.80965611  0.18965396     0.09600
Cu538      Cu  0.27696396  0.95263706  0.22509199     0.44200
Cu539      Cu  0.27911159  0.90391277  0.17383871     0.42000
Cu540      Cu  0.29651818  0.00996088  0.18037689     0.43900
N541        N  0.28558855  0.01706677  0.22509160    -0.34100
N542        N  0.29489393  0.03663405  0.20835227    -0.28300
C543        C  0.29948470  0.07706094  0.21214540    -0.04400
C544        C  0.29253636  0.08399972  0.23227090     0.07800
C545        C  0.28358915  0.04526685  0.24015367     0.01600
H546        H  0.30576754  0.10005995  0.20081705     0.09200
H547        H  0.27568240  0.03827095  0.25552492     0.08300
N548        N  0.28864226  0.98357714  0.15257316    -0.35500
N549        N  0.28141320  0.94385993  0.14973235    -0.27700
C550        C  0.27777463  0.93644073  0.12986383    -0.02900
C551        C  0.28293628  0.97369136  0.11995747     0.05700
C552        C  0.28980292  0.00270176  0.13480110     0.03800
H553        H  0.27296606  0.90623716  0.12322103     0.08900
H554        H  0.29600289  0.03529335  0.13282129     0.07700
N555        N  0.11920340  0.20070509  0.20704565    -0.26700
N556        N  0.10032552  0.19805946  0.22461831    -0.34500
C557        C  0.12917243  0.19873446  0.23934447     0.01700
C558        C  0.16764803  0.20264376  0.23060319     0.07700
C559        C  0.16007782  0.20382728  0.21019999    -0.05400
H560        H  0.12255756  0.19706418  0.25522589     0.08400
H561        H  0.18276591  0.20617363  0.19840014     0.09600
Cu562      Cu  0.03611043  0.19648716  0.22847681     0.44200
Cu563      Cu  0.09158597  0.19988392  0.17874989     0.42000
Cu564      Cu  0.98522788  0.21972738  0.18241003     0.43900
N565        N  0.97184744  0.20341978  0.22629064    -0.34100
N566        N  0.95412226  0.21379617  0.20909067    -0.28300
C567        C  0.91306122  0.21595029  0.21144363    -0.04400
C568        C  0.90398011  0.20631033  0.23108390     0.07800
C569        C  0.94201743  0.19844570  0.24017868     0.01600
H570        H  0.89125492  0.22250819  0.19946464     0.09200
H571        H  0.94749736  0.18909017  0.25555564     0.08300
N572        N  0.01490630  0.21367629  0.15530788    -0.35500
N573        N  0.05440312  0.20423315  0.15330986    -0.27700
C574        C  0.06299308  0.20031894  0.13352191    -0.02900
C575        C  0.02678871  0.20816713  0.12285466     0.05700
C576        C  0.99731037  0.21658588  0.13715486     0.03800
H577        H  0.09320252  0.19343115  0.12744220     0.08900
H578        H  0.96506488  0.22399844  0.13454162     0.07700
O579        O  0.26435742  0.24710840  0.28078584    -0.72300
O580        O  0.27720214  0.13033663  0.25952137    -0.73300
O581        O  0.32870912  0.18655506  0.28191918    -0.61900
O582        O  0.21331314  0.19140987  0.25842070    -0.70300
O583        O  0.23947896  0.21590624  0.23015015    -0.69900
O584        O  0.35417066  0.21155044  0.25361831    -0.61100
O585        O  0.30280566  0.15631819  0.23145530    -0.73700
O586        O  0.28947588  0.27226298  0.25243722    -0.72400
Cu587      Cu  0.27008215  0.18802196  0.27121153     1.04600
Cu588      Cu  0.29741298  0.21490775  0.24098852     1.04300
C589        C  0.27470686  0.27795055  0.26999004     0.93900
C590        C  0.29115870  0.12527447  0.24175549     0.93000
C591        C  0.35954449  0.19834557  0.27151101     0.85200
C592        C  0.20857754  0.20368032  0.24031547     0.91400
N593        N  0.61662000  0.16734856  0.29417549    -0.26700
N594        N  0.59839274  0.18269286  0.27801800    -0.34500
C595        C  0.62791650  0.18968298  0.26411930     0.01700
C596        C  0.66609500  0.17802692  0.27225400     0.07700
C597        C  0.65737231  0.16404380  0.29123966    -0.05400
H598        H  0.62228432  0.20325872  0.24952065     0.08400
H599        H  0.67931300  0.15369375  0.30251210     0.09600
Cu600      Cu  0.53392866  0.19343999  0.27804826     0.44200
Cu601      Cu  0.58750785  0.15603284  0.32067761     0.42000
Cu602      Cu  0.48410382  0.18041346  0.32929523     0.43900
N603        N  0.46990830  0.19554819  0.28423538    -0.34100
N604        N  0.45305833  0.19023755  0.30217009    -0.28300
C605        C  0.41165051  0.19064643  0.30024657    -0.04400
C606        C  0.40153722  0.19678403  0.28030845     0.07800
C607        C  0.43915877  0.19996775  0.27057831     0.01600
H608        H  0.39039569  0.18640541  0.31253353     0.09200
H609        H  0.44384051  0.20408389  0.25463930     0.08300
N610        N  0.52359128  0.16339949  0.35268245    -0.35500
N611        N  0.56219182  0.15322928  0.34865117    -0.27700
C612        C  0.58166896  0.14184078  0.36552283    -0.02900
C613        C  0.55426104  0.14499604  0.38116687     0.05700
C614        C  0.51739016  0.15881197  0.37260840     0.03800
H615        H  0.61363562  0.13187196  0.36631800     0.08900
H616        H  0.48831231  0.16424412  0.38012276     0.07700
N617        N  0.26057125  0.37268395  0.29910533    -0.26700
N618        N  0.26998719  0.38874761  0.28140762    -0.34500
C619        C  0.27599108  0.35748655  0.26821686     0.01700
C620        C  0.26991711  0.32029428  0.27802379     0.07700
C621        C  0.26004736  0.33118180  0.29748707    -0.05400
H622        H  0.28452954  0.36154038  0.25266827     0.08400
H623        H  0.25394288  0.31037292  0.30979049     0.09600
Cu624      Cu  0.27509426  0.45229529  0.27518420     0.44200
Cu625      Cu  0.25114989  0.40489578  0.32591987     0.42000
Cu626      Cu  0.26093125  0.51133626  0.31993475     0.43900
N627        N  0.27516999  0.51731534  0.27536628    -0.34100
N628        N  0.26900284  0.53778905  0.29230928    -0.28300
C629        C  0.26851654  0.57849404  0.28875036    -0.04400
C630        C  0.27498676  0.58470063  0.26857148     0.07800
C631        C  0.27931839  0.54518734  0.26037746     0.01600
H632        H  0.26384206  0.60199637  0.30015807     0.09200
H633        H  0.28434898  0.53735145  0.24476583     0.08300
N634        N  0.25025089  0.48543037  0.34747214    -0.35500
N635        N  0.24625132  0.44527948  0.35027124    -0.27700
C636        C  0.23733237  0.43861232  0.36978952    -0.02900
C637        C  0.23557118  0.47680871  0.37945742     0.05700
C638        C  0.24384482  0.50553511  0.36481336     0.03800
H639        H  0.23086473  0.40865117  0.37618503     0.08900
H640        H  0.24385874  0.53886452  0.36648680     0.07700
N641        N  0.78062072  0.36087999  0.29846917    -0.26700
N642        N  0.77756827  0.37820966  0.28046074    -0.34500
C643        C  0.77833876  0.34796925  0.26640818     0.01700
C644        C  0.78251843  0.31015624  0.27598266     0.07700
C645        C  0.78394196  0.31960377  0.29621480    -0.05400
H646        H  0.77634439  0.35317333  0.25038767     0.08400
H647        H  0.78646204  0.29791588  0.30850988     0.09600
Cu648      Cu  0.77400121  0.44220291  0.27483873     0.44200
Cu649      Cu  0.77870717  0.39094185  0.32630543     0.42000
Cu650      Cu  0.77502133  0.49805926  0.32053261     0.43900
N651        N  0.77606860  0.50716739  0.27581056    -0.34100
N652        N  0.77801514  0.52659057  0.29326939    -0.28300
C653        C  0.78099082  0.56741592  0.29035537    -0.04400
C654        C  0.78048086  0.57473294  0.27001209     0.07800
C655        C  0.77709765  0.53585339  0.26107323     0.01600
H656        H  0.78252448  0.59023037  0.30228031     0.09200
H657        H  0.77587040  0.52899492  0.24516402     0.08300
N658        N  0.77188207  0.47076826  0.34809390    -0.35500
N659        N  0.77389156  0.43047019  0.35104791    -0.27700
C660        C  0.77263537  0.42333519  0.37104664    -0.02900
C661        C  0.76947436  0.46142038  0.38078224     0.05700
C662        C  0.76911398  0.49044989  0.36572539     0.03800
H663        H  0.77455777  0.39307621  0.37789755     0.08900
H664        H  0.76793795  0.52376047  0.36746943     0.07700
N665        N  0.61266572  0.70796343  0.29213702    -0.26700
N666        N  0.59402888  0.70416588  0.27450924    -0.34500
C667        C  0.62334767  0.70128860  0.26015391     0.01700
C668        C  0.66197324  0.70386357  0.26937039     0.07700
C669        C  0.65375027  0.70811698  0.28958676    -0.05400
H670        H  0.61708915  0.69750437  0.24427444     0.08400
H671        H  0.67610827  0.71004657  0.30170353     0.09600
Cu672      Cu  0.52910539  0.70351892  0.27219980     0.44200
Cu673      Cu  0.58248866  0.70965863  0.31931111     0.42000
Cu674      Cu  0.47393196  0.70814311  0.32194716     0.43900
N675        N  0.46450825  0.70654845  0.27596815    -0.34100
N676        N  0.44570045  0.70942042  0.29358193    -0.28300
C677        C  0.40462833  0.71152547  0.29048450    -0.04400
C678        C  0.39674315  0.70947069  0.27008184     0.07800
C679        C  0.43541509  0.70619538  0.26130083     0.01600
H680        H  0.38196753  0.71321746  0.30234216     0.09200
H681        H  0.44192603  0.70356637  0.24542626     0.08300
N682        N  0.51083053  0.70531861  0.34779653    -0.35500
N683        N  0.55144500  0.70591792  0.34617905    -0.27700
C684        C  0.56864721  0.70385157  0.36448730    -0.02900
C685        C  0.53767150  0.70192159  0.37856408     0.05700
C686        C  0.50104370  0.70299532  0.36750817     0.03800
H687        H  0.60157571  0.70438881  0.36738300     0.08900
H688        H  0.46989650  0.70269974  0.37329263     0.07700
C689        C  0.03748578  0.18934762  0.08649669    -0.15800
C690        C  0.01802014  0.21046399  0.10119271    -0.31000
H691        H  0.06512425  0.17124822  0.08969831     0.13200
H692        H  0.99095279  0.22893178  0.09756620     0.13800
C693        C  0.27805876  0.95494561  0.08369109    -0.15800
C694        C  0.28570428  0.98243102  0.09840862    -0.31000
H695        H  0.26590382  0.92453435  0.08702698     0.13200
H696        H  0.29550012  0.01347854  0.09460319     0.13800
C697        C  0.25876387  0.96192728  0.89960152    -0.15800
C698        C  0.25889892  0.93546346  0.91506757    -0.31000
H699        H  0.26596239  0.99425840  0.90241501     0.13200
H700        H  0.24894996  0.90366655  0.91315564     0.13800
C701        C  0.99515600  0.18835469  0.90109058    -0.15800
C702        C  0.02367231  0.18366144  0.91571140    -0.31000
H703        H  0.96343279  0.19525145  0.90521691     0.13200
H704        H  0.05505024  0.17413259  0.91221526     0.13800
C705        C  0.22757387  0.44865713  0.59270676    -0.15800
C706        C  0.22580588  0.48653882  0.58447124    -0.31000
H707        H  0.22368660  0.42131942  0.58336000     0.13200
H708        H  0.22835753  0.51365682  0.59400652     0.13800
C709        C  0.22120506  0.46138659  0.41551003    -0.15800
C710        C  0.22239850  0.48774901  0.39996705    -0.31000
H711        H  0.23226587  0.42975754  0.41385228     0.13200
H712        H  0.21411303  0.52001808  0.40238003     0.13800
C713        C  0.56366441  0.15202144  0.58735044    -0.15800
C714        C  0.52549456  0.16009551  0.59416752    -0.31000
H715        H  0.58930309  0.14995365  0.59785520     0.13200
H716        H  0.49919366  0.16018232  0.58396533     0.13800
C717        C  0.56489018  0.13342494  0.40191499    -0.15800
C718        C  0.54186692  0.14161533  0.41819570    -0.31000
H719        H  0.59473369  0.11839071  0.40367775     0.13200
H720        H  0.51278408  0.15833959  0.41675792     0.13800
C721        C  0.70177457  0.90155595  0.49722422    -0.15800
C722        C  0.70494789  0.93018271  0.51180468    -0.31000
H723        H  0.70700277  0.91014405  0.48169928     0.13200
H724        H  0.70127397  0.92136823  0.52741147     0.13800
C725        C  0.49699224  0.71033560  0.58525799    -0.15800
C726        C  0.52270381  0.71421442  0.60109202    -0.31000
H727        H  0.46589968  0.69869525  0.58716072     0.13200
H728        H  0.55445782  0.72332071  0.59854298     0.13800
C729        C  0.51735854  0.70263051  0.41511508    -0.15800
C730        C  0.54580705  0.70213612  0.40043303    -0.31000
H731        H  0.48473047  0.69961975  0.41158244     0.13200
H732        H  0.57827619  0.70321881  0.40454885     0.13800
C733        C  0.97411836  0.63358364  0.49007639    -0.15800
C734        C  0.00304158  0.63768909  0.50447262    -0.31000
H735        H  0.98293859  0.63284274  0.47437851     0.13200
H736        H  0.99384238  0.63981404  0.52010073     0.13800
C737        C  0.80378569  0.43596416  0.58684815    -0.15800
C738        C  0.81339430  0.46020335  0.60265459    -0.31000
H739        H  0.78807859  0.40678454  0.58907416     0.13200
H740        H  0.82712083  0.49022057  0.60021136     0.13800
C741        C  0.77254971  0.44618184  0.41771091    -0.15800
C742        C  0.76973808  0.47265761  0.40223701    -0.31000
H743        H  0.77193973  0.41298386  0.41517968     0.13200
H744        H  0.76866427  0.50567080  0.40525387     0.13800
C745        C  0.50863754  0.07375587  0.99145155    -0.15800
C746        C  0.53272977  0.06832046  0.00773829    -0.31000
H747        H  0.52217103  0.07385390  0.97658972     0.13200
H748        H  0.51928045  0.06780839  0.02260981     0.13800
C749        C  0.79693797  0.97618474  0.91740288    -0.15800
C750        C  0.77530373  0.95026665  0.90567116    -0.31000
H751        H  0.82433591  0.99140050  0.91180456     0.13200
H752        H  0.74989731  0.93289639  0.91199433     0.13800
C753        C  0.79604394  0.94974248  0.09661765    -0.15800
C754        C  0.81417419  0.97678617  0.08432520    -0.31000
H755        H  0.77110767  0.93051836  0.09092281     0.13200
H756        H  0.84102001  0.99426016  0.08915537     0.13800
C757        C  0.85115265  0.38118102  0.01483625    -0.15800
C758        C  0.84583559  0.40942583  0.00029270    -0.31000
H759        H  0.85408426  0.39100469  0.03039417     0.13200
H760        H  0.84109229  0.39948421  0.98485599     0.13800
C761        C  0.99558983  0.66110992  0.90646074    -0.15800
C762        C  0.96019666  0.65237530  0.91588741    -0.31000
H763        H  0.02468946  0.66048809  0.91466509     0.13200
H764        H  0.93149738  0.65116776  0.90743833     0.13800
C765        C  0.00874053  0.61982509  0.09709702    -0.15800
C766        C  0.03270219  0.62704552  0.08107814    -0.31000
H767        H  0.97947443  0.60419170  0.09497777     0.13200
H768        H  0.06059707  0.64528306  0.08251311     0.13800
loop_ 
_geom_bond_atom_site_label_1 
_geom_bond_atom_site_label_2 
_geom_bond_distance 
_geom_bond_site_symmetry_2 
_ccdc_geom_bond_type 
N1            N2   1.322   1_455  A
N1            C5   1.353       .  A
N1           Cu9   2.095   1_454  S
N2            C3   1.335       .  A
N2           Cu8   2.051       .  S
C3            C4   1.380   1_655  A
C3            H6   1.081       .  S
C4            C5   1.390       .  A
C4          C766   1.483       .  S
C5            H7   1.082       .  S
Cu8          N11   2.051       .  S
Cu9          N19   2.096       .  S
Cu10         N12   2.062       .  S
Cu10         N18   2.063       .  S
N11          N12   1.316   1_554  A
N11          C15   1.341       .  A
N12          C13   1.344       .  A
C13          C14   1.385   1_556  A
C13          H16   1.082       .  S
C14          C15   1.386       .  A
C14         C758   1.474       .  S
C15          H17   1.082       .  S
N18          N19   1.325       .  A
N18          C22   1.338       .  A
N19          C20   1.352       .  A
C20          C21   1.388       .  A
C20          H23   1.082   1_655  S
C21          C22   1.374       .  A
C21         C762   1.471       .  S
C22          H24   1.082       .  S
N25          N26   1.324       .  A
N25          C29   1.351       .  A
N25         Cu33   2.089   1_565  S
N26          C27   1.338       .  A
N26         Cu32   2.056   1_565  S
C27          C28   1.376       .  A
C27          H30   1.082       .  S
C28          C29   1.385       .  A
C28         C754   1.470       .  S
C29          H31   1.082       .  S
Cu32         N35   2.055       .  S
Cu33         N43   2.089   1_544  S
Cu34         N36   2.056       .  S
Cu34         N42   2.058       .  S
N35          N36   1.317   1_554  A
N35          C39   1.343       .  A
N36          C37   1.342       .  A
C37          C38   1.386   1_556  A
C37          H40   1.081       .  S
C38          C39   1.382       .  A
C38         C746   1.473       .  S
C39          H41   1.082       .  S
N42          N43   1.324   1_545  A
N42          C46   1.339   1_545  A
N43          C44   1.350       .  A
C44          C45   1.385       .  A
C44          H47   1.082       .  S
C45          C46   1.377       .  A
C45         C749   1.471       .  S
C46          H48   1.082       .  S
N49          N50   1.322       .  A
N49          C53   1.352       .  A
N49         Cu57   2.097       .  S
N50          C51   1.336       .  A
N50         Cu56   2.055       .  S
C51          C52   1.382       .  A
C51          H54   1.080       .  S
C52          C53   1.390       .  A
C52         C737   1.485       .  S
C53          H55   1.082       .  S
Cu56         N59   2.053       .  S
Cu57         N67   2.097       .  S
Cu58         N60   2.059       .  S
Cu58         N66   2.060       .  S
N59          N60   1.316       .  A
N59          C63   1.341       .  A
N60          C61   1.344       .  A
C61          C62   1.385       .  A
C61          H64   1.082       .  S
C62          C63   1.388       .  A
C62         C733   1.476       .  S
C63          H65   1.082       .  S
N66          N67   1.324       .  A
N66          C70   1.336       .  A
N67          C68   1.353       .  A
C68          C69   1.389       .  A
C68          H71   1.082       .  S
C69          C70   1.382       .  A
C69         C741   1.484       .  S
C70          H72   1.081       .  S
N73          N74   1.324       .  A
N73          C77   1.354       .  A
N73         Cu81   2.106       .  S
N74          C75   1.337       .  A
N74         Cu80   2.061       .  S
C75          C76   1.381       .  A
C75          H78   1.082       .  S
C76          C77   1.390       .  A
C76         C725   1.485       .  S
C77          H79   1.082       .  S
Cu80         N83   2.059       .  S
Cu81         N91   2.106       .  S
Cu82         N84   2.060       .  S
Cu82         N90   2.061       .  S
N83          N84   1.317       .  A
N83          C87   1.344       .  A
N84          C85   1.343       .  A
C85          C86   1.383       .  A
C85          H88   1.082       .  S
C86          C87   1.388       .  A
C86         C721   1.475       .  S
C87          H89   1.082       .  S
N90          N91   1.323       .  A
N90          C94   1.337       .  A
N91          C92   1.355       .  A
C92          C93   1.392       .  A
C92          H95   1.082       .  S
C93          C94   1.382       .  A
C93         C729   1.489       .  S
C94          H96   1.081       .  S
N97          N98   1.324       .  A
N97         C101   1.352       .  A
N97        Cu105   2.092       .  S
N98          C99   1.336       .  A
N98        Cu104   2.055       .  S
C99         C100   1.373       .  A
C99         H102   1.082       .  S
C100        C101   1.388       .  A
C100        C713   1.469       .  S
C101        H103   1.082       .  S
Cu104       N107   2.053       .  S
Cu105       N115   2.092       .  S
Cu106       N108   2.057       .  S
Cu106       N114   2.059       .  S
N107        N108   1.316       .  A
N107        C111   1.344       .  A
N108        C109   1.341   1_545  A
C109        C110   1.388       .  A
C109        H112   1.081       .  S
C110        C111   1.384   1_565  A
C110        C722   1.476       .  S
C111        H113   1.082       .  S
N114        N115   1.323       .  A
N114        C118   1.337       .  A
N115        C116   1.351       .  A
C116        C117   1.389       .  A
C116        H119   1.082       .  S
C117        C118   1.383       .  A
C117        C718   1.484       .  S
C118        H120   1.081       .  S
N121        N122   1.325       .  A
N121        C125   1.352       .  A
N121       Cu129   2.101       .  S
N122        C123   1.340       .  A
N122       Cu128   2.066       .  S
C123        C124   1.382       .  A
C123        H126   1.082       .  S
C124        C125   1.388       .  A
C124        C709   1.482       .  S
C125        H127   1.082       .  S
Cu128       N131   2.063       .  S
Cu129       N139   2.100       .  S
Cu130       N132   2.056       .  S
Cu130       N138   2.057       .  S
N131        N132   1.317       .  A
N131        C135   1.344       .  A
N132        C133   1.343       .  A
C133        C134   1.383       .  A
C133        H136   1.082       .  S
C134        C135   1.389       .  A
C134        C734   1.475       .  S
C135        H137   1.081       .  S
N138        N139   1.323       .  A
N138        C142   1.337       .  A
N139        C140   1.354       .  A
C140        C141   1.391       .  A
C140        H143   1.082       .  S
C141        C142   1.374       .  A
C141        C706   1.473       .  S
C142        H144   1.082       .  S
N145        N146   1.324       .  A
N145        C149   1.345       .  A
N145       Cu153   2.068       .  S
N146        C147   1.350       .  A
N146       Cu152   2.109       .  S
C147        C148   1.389       .  A
C147        H150   1.082       .  S
C148        C149   1.380       .  A
C148        C196   1.475       .  S
C149        H151   1.082       .  S
Cu152       N155   2.108   1_565  S
Cu153       N163   2.067       .  S
Cu154       N156   2.066   1_565  S
Cu154       N162   2.065       .  S
N155        N156   1.324       .  A
N155        C159   1.354       .  A
N156        C157   1.341       .  A
C157        C158   1.378       .  A
C157        H160   1.082       .  S
C158        C159   1.391       .  A
C158        C181   1.476       .  S
C159        H161   1.082       .  S
N162        N163   1.320       .  A
N162        C166   1.345       .  A
N163        C164   1.344       .  A
C164        C165   1.382       .  A
C164        H167   1.082       .  S
C165        C166   1.384       .  A
C165        C750   1.468       .  S
C166        H168   1.082   1_565  S
O169       Cu177   2.017       .  S
O169        C179   1.280       .  A
O170       Cu177   2.032       .  S
O170        C180   1.278       .  A
O171       Cu177   2.010       .  S
O171        C181   1.278       .  A
O172       Cu177   2.021       .  S
O172        C182   1.278       .  A
O173       Cu178   2.018       .  S
O173        C182   1.279       .  A
O174       Cu178   2.031       .  S
O174        C181   1.279       .  A
O175       Cu178   2.006       .  S
O175        C180   1.279       .  A
O176       Cu178   2.023       .  S
O176        C179   1.277       .  A
Cu177      Cu178   2.373       .  S
C179        C248   1.476       .  S
C180        C334   1.476       .  S
C182        C372   1.476       .  S
O183       Cu191   2.002       .  S
O183        C193   1.278       .  A
O184       Cu191   2.017       .  S
O184        C194   1.277       .  A
O185       Cu191   2.000       .  S
O185        C195   1.277       .  A
O186       Cu191   2.010       .  S
O186        C196   1.276       .  A
O187       Cu192   2.029       .  S
O187        C196   1.281       .  A
O188       Cu192   2.035       .  S
O188        C195   1.279       .  A
O189       Cu192   2.013       .  S
O189        C194   1.279       .  A
O190       Cu192   2.028       .  S
O190        C193   1.278       .  A
Cu191      Cu192   2.374       .  S
C193        C358   1.473       .  S
C194        C210   1.473       .  S
C195        C382   1.476       .  S
N197        N198   1.326       .  A
N197        C201   1.342       .  A
N197       Cu205   2.073       .  S
N198        C199   1.353       .  A
N198       Cu204   2.108   1_455  S
C199        C200   1.389       .  A
C199        H202   1.082       .  S
C200        C201   1.379       .  A
C200        C234   1.475       .  S
C201        H203   1.082       .  S
Cu204       N207   2.106       .  S
Cu205       N215   2.071       .  S
Cu206       N208   2.055       .  S
Cu206       N214   2.056       .  S
N207        N208   1.323       .  A
N207        C211   1.352       .  A
N208        C209   1.341       .  A
C209        C210   1.377       .  A
C209        H212   1.082       .  S
C210        C211   1.391       .  A
C211        H213   1.082       .  S
N214        N215   1.318   1_655  A
N214        C218   1.340       .  A
N215        C216   1.348       .  A
C216        C217   1.387   1_455  A
C216        H219   1.082       .  S
C217        C218   1.387       .  A
C217        C761   1.482       .  S
C218        H220   1.081       .  S
O221       Cu229   2.007       .  S
O221        C231   1.278       .  A
O222       Cu229   2.022       .  S
O222        C232   1.278       .  A
O223       Cu229   2.019       .  S
O223        C233   1.279       .  A
O224       Cu229   2.029       .  S
O224        C234   1.279       .  A
O225       Cu230   2.009       .  S
O225        C234   1.278       .  A
O226       Cu230   2.021       .  S
O226        C233   1.278       .  A
O227       Cu230   2.016       .  S
O227        C232   1.279       .  A
O228       Cu230   2.025       .  S
O228        C231   1.278       .  A
Cu229      Cu230   2.374       .  S
C231        C310   1.474       .  S
C232        C276   1.475       .  S
C233        C348   1.476       .  S
N235        N236   1.328       .  A
N235        C239   1.344       .  A
N235       Cu243   2.089       .  S
N236        C237   1.351       .  A
N236       Cu242   2.104       .  S
C237        C238   1.385       .  A
C237        H240   1.082       .  S
C238        C239   1.381       .  A
C238        C269   1.475       .  S
C239        H241   1.082       .  S
Cu242       N245   2.102   1_455  S
Cu243       N253   2.086       .  S
Cu244       N246   2.053       .  S
Cu244       N252   2.053       .  S
N245        N246   1.321       .  A
N245        C249   1.353       .  A
N246        C247   1.341       .  A
C247        C248   1.378       .  A
C247        H250   1.082       .  S
C248        C249   1.393       .  A
C249        H251   1.082       .  S
N252        N253   1.319   1_655  A
N252        C256   1.337       .  A
N253        C254   1.353       .  A
C254        C255   1.391       .  A
C254        H257   1.082       .  S
C255        C256   1.377   1_455  A
C255        C701   1.474   1_455  S
C256        H258   1.082       .  S
O259       Cu267   2.034       .  S
O259        C269   1.280       .  A
O260       Cu267   2.023       .  S
O260        C270   1.280       .  A
O261       Cu267   2.018       .  S
O261        C271   1.276       .  A
O262       Cu267   2.006       .  S
O262        C272   1.277       .  A
O263       Cu268   2.029       .  S
O263        C272   1.279       .  A
O264       Cu268   2.014       .  S
O264        C271   1.280       .  A
O265       Cu268   2.011       .  S
O265        C270   1.276       .  A
O266       Cu268   2.001       .  S
O266        C269   1.276       .  A
Cu267      Cu268   2.374       .  S
C270        C324   1.474       .  S
C271        C286   1.473       .  S
C272        C300   1.475       .  S
N273        N274   1.328       .  A
N273        C277   1.345       .  A
N273       Cu281   2.086       .  S
N274        C275   1.351       .  A
N274       Cu280   2.109       .  S
C275        C276   1.387       .  A
C275        H278   1.082       .  S
C276        C277   1.380       .  A
C277        H279   1.082       .  S
Cu280       N283   2.106       .  S
Cu281       N291   2.083       .  S
Cu282       N284   2.042   1_565  S
Cu282       N290   2.041       .  S
N283        N284   1.320   1_565  A
N283        C287   1.353   1_565  A
N284        C285   1.339       .  A
C285        C286   1.376       .  A
C285        H288   1.082       .  S
C286        C287   1.393       .  A
C287        H289   1.082       .  S
N290        N291   1.319       .  A
N290        C294   1.336       .  A
N291        C292   1.352       .  A
C292        C293   1.391       .  A
C292        H295   1.082       .  S
C293        C294   1.375       .  A
C293        C697   1.469       .  S
C294        H296   1.082   1_565  S
N297        N298   1.327       .  A
N297        C301   1.343       .  A
N297       Cu305   2.083       .  S
N298        C299   1.351       .  A
N298       Cu304   2.102       .  S
C299        C300   1.386       .  A
C299        H302   1.082       .  S
C300        C301   1.381       .  A
C301        H303   1.082       .  S
Cu304       N307   2.100       .  S
Cu305       N315   2.081       .  S
Cu306       N308   2.057       .  S
Cu306       N314   2.058       .  S
N307        N308   1.322       .  A
N307        C311   1.352       .  A
N308        C309   1.340       .  A
C309        C310   1.378       .  A
C309        H312   1.082       .  S
C310        C311   1.391       .  A
C311        H313   1.082       .  S
N314        N315   1.318       .  A
N314        C318   1.339       .  A
N315        C316   1.351       .  A
C316        C317   1.389       .  A
C316        H319   1.082       .  S
C317        C318   1.388       .  A
C317        C705   1.487       .  S
C318        H320   1.080       .  S
N321        N322   1.327       .  A
N321        C325   1.344       .  A
N321       Cu329   2.075       .  S
N322        C323   1.350       .  A
N322       Cu328   2.112       .  S
C323        C324   1.388       .  A
C323        H326   1.082       .  S
C324        C325   1.378       .  A
C325        H327   1.082       .  S
Cu328       N331   2.109       .  S
Cu329       N339   2.072       .  S
Cu330       N332   2.050       .  S
Cu330       N338   2.050       .  S
N331        N332   1.321       .  A
N331        C335   1.355       .  A
N332        C333   1.339       .  A
C333        C334   1.377       .  A
C333        H336   1.082       .  S
C334        C335   1.394       .  A
C335        H337   1.082       .  S
N338        N339   1.318       .  A
N338        C342   1.337       .  A
N339        C340   1.350       .  A
C340        C341   1.388       .  A
C340        H343   1.082       .  S
C341        C342   1.386       .  A
C341        C714   1.482       .  S
C342        H344   1.081       .  S
N345        N346   1.328       .  A
N345        C349   1.346       .  A
N345       Cu353   2.094       .  S
N346        C347   1.349       .  A
N346       Cu352   2.105       .  S
C347        C348   1.385       .  A
C347        H350   1.082       .  S
C348        C349   1.382       .  A
C349        H351   1.082       .  S
Cu352       N355   2.102       .  S
Cu353       N363   2.089       .  S
Cu354       N356   2.043       .  S
Cu354       N362   2.045       .  S
N355        N356   1.320       .  A
N355        C359   1.355       .  A
N356        C357   1.337       .  A
C357        C358   1.376       .  A
C357        H360   1.082       .  S
C358        C359   1.394       .  A
C359        H361   1.082       .  S
N362        N363   1.319       .  A
N362        C366   1.337       .  A
N363        C364   1.353       .  A
C364        C365   1.392       .  A
C364        H367   1.082       .  S
C365        C366   1.377       .  A
C365        C726   1.474       .  S
C366        H368   1.082       .  S
N369        N370   1.327       .  A
N369        C373   1.344       .  A
N369       Cu377   2.080       .  S
N370        C371   1.351       .  A
N370       Cu376   2.107       .  S
C371        C372   1.388       .  A
C371        H374   1.082       .  S
C372        C373   1.380       .  A
C373        H375   1.082       .  S
Cu376       N379   2.104       .  S
Cu377       N387   2.076       .  S
Cu378       N380   2.054       .  S
Cu378       N386   2.053       .  S
N379        N380   1.321       .  A
N379        C383   1.354       .  A
N380        C381   1.339       .  A
C381        C382   1.378       .  A
C381        H384   1.082       .  S
C382        C383   1.392       .  A
C383        H385   1.082       .  S
N386        N387   1.319       .  A
N386        C390   1.338       .  A
N387        C388   1.351       .  A
C388        C389   1.388       .  A
C388        H391   1.082       .  S
C389        C390   1.377       .  A
C389        C738   1.470       .  S
C390        H392   1.082       .  S
N393        N394   1.324       .  A
N393        C397   1.351       .  A
N393       Cu401   2.087       .  S
N394        C395   1.336       .  A
N394       Cu400   2.060   1_565  S
C395        C396   1.380       .  A
C395        H398   1.082       .  S
C396        C397   1.386       .  A
C396        C698   1.478       .  S
C397        H399   1.082       .  S
Cu400       N403   2.058       .  S
Cu401       N411   2.087   1_556  S
Cu402       N404   2.049       .  S
Cu402       N410   2.050   1_545  S
N403        N404   1.316   1_556  A
N403        C407   1.343       .  A
N404        C405   1.341       .  A
C405        C406   1.386   1_554  A
C405        H408   1.081       .  S
C406        C407   1.383       .  A
C406        C745   1.474       .  S
C407        H409   1.082       .  S
N410        N411   1.323       .  A
N410        C414   1.335       .  A
N411        C412   1.351       .  A
C412        C413   1.387       .  A
C412        H415   1.082       .  S
C413        C414   1.379       .  A
C413        C693   1.476       .  S
C414        H416   1.082   1_565  S
N417        N418   1.324   1_455  A
N417        C421   1.354       .  A
N417       Cu425   2.105   1_556  S
N418        C419   1.336       .  A
N418       Cu424   2.057       .  S
C419        C420   1.380   1_655  A
C419        H422   1.082       .  S
C420        C421   1.391       .  A
C420        C702   1.485       .  S
C421        H423   1.082       .  S
Cu424       N427   2.055       .  S
Cu425       N435   2.105       .  S
Cu426       N428   2.056       .  S
Cu426       N434   2.054       .  S
N427        N428   1.315   1_556  A
N427        C431   1.342       .  A
N428        C429   1.344       .  A
C429        C430   1.384       .  A
C429        H432   1.082       .  S
C430        C431   1.388   1_554  A
C430        C757   1.474       .  S
C431        H433   1.082       .  S
N434        N435   1.323   1_655  A
N434        C438   1.333       .  A
N435        C436   1.356       .  A
C436        C437   1.393       .  A
C436        H439   1.082       .  S
C437        C438   1.381   1_455  A
C437        C689   1.489       .  S
C438        H440   1.080       .  S
N441        N442   1.327       .  A
N441        C445   1.345       .  A
N441       Cu449   2.082       .  S
N442        C443   1.351       .  A
N442       Cu448   2.111       .  S
C443        C444   1.388       .  A
C443        H446   1.082       .  S
C444        C445   1.380       .  A
C444        C476   1.477       .  S
C445        H447   1.082       .  S
Cu448       N451   2.109   1_455  S
Cu449       N459   2.078       .  S
Cu450       N452   2.051       .  S
Cu450       N458   2.051   1_655  S
N451        N452   1.321       .  A
N451        C455   1.354       .  A
N452        C453   1.341       .  A
C453        C454   1.378       .  A
C453        H456   1.082       .  S
C454        C455   1.394       .  A
C454        C492   1.478       .  S
C455        H457   1.082       .  S
N458        N459   1.319       .  A
N458        C462   1.337   1_455  A
N459        C460   1.352       .  A
C460        C461   1.389       .  A
C460        H463   1.082       .  S
C461        C462   1.377   1_455  A
C461        C765   1.470       .  S
C462        H464   1.082       .  S
O465       Cu473   2.016       .  S
O465        C475   1.279       .  A
O466       Cu473   2.025       .  S
O466        C476   1.279       .  A
O467       Cu473   1.994       .  S
O467        C477   1.277       .  A
O468       Cu473   2.006       .  S
O468        C478   1.276       .  A
O469       Cu474   2.022       .  S
O469        C478   1.280       .  A
O470       Cu474   2.035       .  S
O470        C477   1.279       .  A
O471       Cu474   2.017       .  S
O471        C476   1.279       .  A
O472       Cu474   2.032       .  S
O472        C475   1.280       .  A
Cu473      Cu474   2.373       .  S
C475        C678   1.480       .  S
C477        C630   1.474       .  S
C478        C534   1.471       .  S
O479       Cu487   2.007       .  S
O479        C489   1.279       .  A
O480       Cu487   2.014       .  S
O480        C490   1.277       .  A
O481       Cu487   2.011       .  S
O481        C491   1.279       .  A
O482       Cu487   2.025       .  S
O482        C492   1.278       .  A
O483       Cu488   2.017       .  S
O483        C492   1.280       .  A
O484       Cu488   2.031       .  S
O484        C491   1.279       .  A
O485       Cu488   2.015       .  S
O485        C490   1.279       .  A
O486       Cu488   2.021       .  S
O486        C489   1.277       .  A
Cu487      Cu488   2.374       .  S
C489        C654   1.471       .  S
C490        C496   1.472       .  S
C491        C668   1.478       .  S
N493        N494   1.324       .  A
N493        C497   1.342       .  A
N493       Cu501   2.062       .  S
N494        C495   1.350       .  A
N494       Cu500   2.103       .  S
C495        C496   1.389       .  A
C495        H498   1.082       .  S
C496        C497   1.378       .  A
C497        H499   1.082       .  S
Cu500       N503   2.103   1_565  S
Cu501       N511   2.062       .  S
Cu502       N504   2.067   1_565  S
Cu502       N510   2.066       .  S
N503        N504   1.324       .  A
N503        C507   1.352       .  A
N504        C505   1.342       .  A
C505        C506   1.378       .  A
C505        H508   1.082       .  S
C506        C507   1.389       .  A
C506        C529   1.473       .  S
C507        H509   1.082       .  S
N510        N511   1.319       .  A
N510        C514   1.346       .  A
N511        C512   1.342       .  A
C512        C513   1.381       .  A
C512        H515   1.082       .  S
C513        C514   1.385       .  A
C513        C753   1.468       .  S
C514        H516   1.082   1_565  S
O517       Cu525   2.027       .  S
O517        C527   1.279       .  A
O518       Cu525   2.011       .  S
O518        C528   1.280       .  A
O519       Cu525   2.020       .  S
O519        C529   1.277       .  A
O520       Cu525   2.016       .  S
O520        C530   1.279       .  A
O521       Cu526   2.020       .  S
O521        C530   1.278       .  A
O522       Cu526   2.015       .  S
O522        C529   1.279       .  A
O523       Cu526   2.026       .  S
O523        C528   1.277       .  A
O524       Cu526   2.006       .  S
O524        C527   1.278       .  A
Cu525      Cu526   2.374       .  S
C527        C568   1.474       .  S
C528        C596   1.477       .  S
C530        C644   1.475       .  S
N531        N532   1.326       .  A
N531        C535   1.344       .  A
N531       Cu539   2.069       .  S
N532        C533   1.349       .  A
N532       Cu538   2.105       .  S
C533        C534   1.387       .  A
C533        H536   1.082       .  S
C534        C535   1.378       .  A
C535        H537   1.082       .  S
Cu538       N541   2.102   1_565  S
Cu539       N549   2.066       .  S
Cu540       N542   2.050       .  S
Cu540       N548   2.050   1_545  S
N541        N542   1.321       .  A
N541        C545   1.354       .  A
N542        C543   1.338       .  A
C543        C544   1.377       .  A
C543        H546   1.082       .  S
C544        C545   1.392       .  A
C544        C590   1.474       .  S
C545        H547   1.082       .  S
N548        N549   1.319       .  A
N548        C552   1.338   1_565  A
N549        C550   1.348       .  A
C550        C551   1.387       .  A
C550        H553   1.082       .  S
C551        C552   1.377   1_565  A
C551        C694   1.467       .  S
C552        H554   1.082       .  S
N555        N556   1.327       .  A
N555        C559   1.343       .  A
N555       Cu563   2.080       .  S
N556        C557   1.350       .  A
N556       Cu562   2.097       .  S
C557        C558   1.385       .  A
C557        H560   1.082       .  S
C558        C559   1.379       .  A
C558        C592   1.471       .  S
C559        H561   1.082       .  S
Cu562       N565   2.095   1_455  S
Cu563       N573   2.076       .  S
Cu564       N566   2.058       .  S
Cu564       N572   2.058   1_655  S
N565        N566   1.321       .  A
N565        C569   1.352       .  A
N566        C567   1.341       .  A
C567        C568   1.380       .  A
C567        H570   1.082       .  S
C568        C569   1.391       .  A
C569        H571   1.082       .  S
N572        N573   1.319       .  A
N572        C576   1.336   1_455  A
N573        C574   1.353       .  A
C574        C575   1.389       .  A
C574        H577   1.082       .  S
C575        C576   1.377   1_455  A
C575        C690   1.470       .  S
C576        H578   1.082       .  S
O579       Cu587   2.018       .  S
O579        C589   1.279       .  A
O580       Cu587   2.029       .  S
O580        C590   1.278       .  A
O581       Cu587   2.023       .  S
O581        C591   1.280       .  A
O582       Cu587   2.023       .  S
O582        C592   1.278       .  A
O583       Cu588   2.005       .  S
O583        C592   1.277       .  A
O584       Cu588   2.018       .  S
O584        C591   1.277       .  A
O585       Cu588   2.001       .  S
O585        C590   1.278       .  A
O586       Cu588   2.016       .  S
O586        C589   1.278       .  A
Cu587      Cu588   2.374       .  S
C589        C620   1.474       .  S
C591        C606   1.477       .  S
N593        N594   1.320       .  A
N593        C597   1.338       .  A
N593       Cu601   2.041       .  S
N594        C595   1.355       .  A
N594       Cu600   2.113       .  S
C595        C596   1.396       .  A
C595        H598   1.082       .  S
C596        C597   1.376       .  A
C597        H599   1.082       .  S
Cu600       N603   2.116       .  S
Cu601       N611   2.042       .  S
Cu602       N604   2.085       .  S
Cu602       N610   2.081       .  S
N603        N604   1.328       .  A
N603        C607   1.351       .  A
N604        C605   1.346       .  A
C605        C606   1.380       .  A
C605        H608   1.082       .  S
C606        C607   1.388       .  A
C607        H609   1.082       .  S
N610        N611   1.318       .  A
N610        C614   1.352       .  A
N611        C612   1.336       .  A
C612        C613   1.376       .  A
C612        H615   1.082       .  S
C613        C614   1.390       .  A
C613        C717   1.471       .  S
C614        H616   1.082       .  S
N617        N618   1.328       .  A
N617        C621   1.345       .  A
N617       Cu625   2.086       .  S
N618        C619   1.349       .  A
N618       Cu624   2.104       .  S
C619        C620   1.386       .  A
C619        H622   1.082       .  S
C620        C621   1.380       .  A
C621        H623   1.082       .  S
Cu624       N627   2.101       .  S
Cu625       N635   2.083       .  S
Cu626       N628   2.050       .  S
Cu626       N634   2.051       .  S
N627        N628   1.321       .  A
N627        C631   1.355       .  A
N628        C629   1.337       .  A
C629        C630   1.377       .  A
C629        H632   1.082       .  S
C630        C631   1.393       .  A
C631        H633   1.082       .  S
N634        N635   1.319       .  A
N634        C638   1.339       .  A
N635        C636   1.352       .  A
C636        C637   1.390       .  A
C636        H639   1.082       .  S
C637        C638   1.378       .  A
C637        C710   1.474       .  S
C638        H640   1.082       .  S
N641        N642   1.328       .  A
N641        C645   1.345       .  A
N641       Cu649   2.090       .  S
N642        C643   1.350       .  A
N642       Cu648   2.105       .  S
C643        C644   1.386       .  A
C643        H646   1.082       .  S
C644        C645   1.381       .  A
C645        H647   1.082       .  S
Cu648       N651   2.101       .  S
Cu649       N659   2.086       .  S
Cu650       N652   2.042       .  S
Cu650       N658   2.043       .  S
N651        N652   1.320       .  A
N651        C655   1.353       .  A
N652        C653   1.338       .  A
C653        C654   1.376       .  A
C653        H656   1.082       .  S
C654        C655   1.392       .  A
C655        H657   1.082       .  S
N658        N659   1.319       .  A
N658        C662   1.336       .  A
N659        C660   1.353       .  A
C660        C661   1.392       .  A
C660        H663   1.082       .  S
C661        C662   1.376       .  A
C661        C742   1.472       .  S
C662        H664   1.082       .  S
N665        N666   1.322       .  A
N665        C669   1.342       .  A
N665       Cu673   2.062       .  S
N666        C667   1.354       .  A
N666       Cu672   2.106       .  S
C667        C668   1.392       .  A
C667        H670   1.082       .  S
C668        C669   1.380       .  A
C669        H671   1.082       .  S
Cu672       N675   2.109       .  S
Cu673       N683   2.062       .  S
Cu674       N676   2.093       .  S
Cu674       N682   2.090       .  S
N675        N676   1.327       .  A
N675        C679   1.352       .  A
N676        C677   1.345       .  A
C677        C678   1.382       .  A
C677        H680   1.082       .  S
C678        C679   1.388       .  A
C679        H681   1.082       .  S
N682        N683   1.320       .  A
N682        C686   1.355       .  A
N683        C684   1.339       .  A
C684        C685   1.379       .  A
C684        H687   1.082       .  S
C685        C686   1.392       .  A
C685        C730   1.478       .  S
C686        H688   1.082       .  S
C689        C690   1.347       .  D
C689        H691   1.085       .  S
C690        H692   1.083   1_455  S
C693        C694   1.343       .  D
C693        H695   1.086       .  S
C694        H696   1.086   1_565  S
C697        C698   1.341       .  D
C697        H699   1.087       .  S
C698        H700   1.086       .  S
C701        C702   1.345   1_655  D
C701        H703   1.086       .  S
C702        H704   1.085       .  S
C705        C706   1.344       .  D
C705        H707   1.086       .  S
C706        H708   1.083       .  S
C709        C710   1.344       .  D
C709        H711   1.086       .  S
C710        H712   1.086       .  S
C713        C714   1.342       .  D
C713        H715   1.084       .  S
C714        H716   1.086       .  S
C717        C718   1.344       .  D
C717        H719   1.084       .  S
C718        H720   1.086       .  S
C721        C722   1.342       .  D
C721        H723   1.086       .  S
C722        H724   1.086       .  S
C725        C726   1.345       .  D
C725        H727   1.085       .  S
C726        H728   1.086       .  S
C729        C730   1.347       .  D
C729        H731   1.086       .  S
C730        H732   1.085       .  S
C733        C734   1.342   1_655  D
C733        H735   1.085       .  S
C734        H736   1.086   1_455  S
C737        C738   1.345       .  D
C737        H739   1.086       .  S
C738        H740   1.083       .  S
C741        C742   1.344       .  D
C741        H743   1.085       .  S
C742        H744   1.085       .  S
C745        C746   1.343   1_556  D
C745        H747   1.085       .  S
C746        H748   1.084       .  S
C749        C750   1.341       .  D
C749        H751   1.086       .  S
C750        H752   1.087       .  S
C753        C754   1.341       .  D
C753        H755   1.088       .  S
C754        H756   1.086       .  S
C757        C758   1.343       .  D
C757        H759   1.086       .  S
C758        H760   1.086   1_554  S
C761        C762   1.342       .  D
C761        H763   1.086   1_655  S
C762        H764   1.084       .  S
C765        C766   1.345       .  D
C765        H767   1.085   1_455  S
C766        H768   1.085       .  S
