geometry optimzed in LAMMPS
_audit_creation_date              2020-11-30 
_audit_creation_method            'lammps2cif' 
_symmetry_space_group_name_H-M    'P1' 
_symmetry_Int_Tables_number       1 
_symmetry_cell_setting            triclinic 
loop_ 
_symmetry_equiv_pos_as_xyz 
  x,y,z 
_cell_length_a                    49.88127266 
_cell_length_b                    49.929729217425546 
_cell_length_c                    72.35036921147828 
_cell_angle_alpha                 89.89553594058955 
_cell_angle_beta                  90.08354250414935 
_cell_angle_gamma                 89.86986478045482 
loop_ 
_atom_site_label 
_atom_site_type_symbol 
_atom_site_fract_x 
_atom_site_fract_y 
_atom_site_fract_z 
_atom_site_charge 
C1          C  0.99449948  0.64668308  0.98375750     0.03000
C2          C  0.99545934  0.61859288  0.98391888    -0.13200
C3          C  0.99880896  0.60439771  0.00050874     0.00500
C4          C  0.00153254  0.61874669  0.01708308    -0.11700
C5          C  0.00016152  0.64688397  0.01723822     0.03000
C6          C  0.99652000  0.66073224  0.00048420    -0.11100
H7          H  0.99334932  0.60775084  0.97103374     0.08600
H8          H  0.00502169  0.60803172  0.02990195     0.06100
H9          H  0.99544649  0.68240274  0.00042616     0.05900
C10         C  0.64727615  0.01172630  0.01675926     0.03000
C11         C  0.66134399  0.01392501  0.99993025    -0.13200
C12         C  0.64747461  0.01270168  0.98294515     0.00500
C13         C  0.61965598  0.00833914  0.98302783    -0.11700
C14         C  0.60554945  0.00600135  0.99964293     0.03000
C15         C  0.61937267  0.00804526  0.01641275    -0.11100
H16         H  0.68280723  0.01718585  0.00006342     0.08600
H17         H  0.60885363  0.00657315  0.97007869     0.06100
H18         H  0.60833869  0.00692517  0.02928260     0.05900
C19         C  0.85589508  0.49483305  0.48305987     0.03000
C20         C  0.88402877  0.49564568  0.48421607    -0.13200
C21         C  0.89710902  0.49585694  0.50138015     0.00500
C22         C  0.88178517  0.49628847  0.51760283    -0.11700
C23         C  0.85361817  0.49561450  0.51684203     0.03000
C24         C  0.84084791  0.49429162  0.49952173    -0.11100
H25         H  0.89589687  0.49659268  0.47169970     0.08600
H26         H  0.89183404  0.49676188  0.53089126     0.06100
H27         H  0.81918895  0.49343287  0.49888503     0.05900
C28         C  0.48223282  0.86140602  0.51457423     0.03000
C29         C  0.48396172  0.84763628  0.49771087    -0.13200
C30         C  0.48435643  0.86189222  0.48095660     0.00500
C31         C  0.48383090  0.88999053  0.48116347    -0.11700
C32         C  0.48168005  0.90402264  0.49787705     0.03000
C33         C  0.48050829  0.88947144  0.51446555    -0.11100
H34         H  0.48545541  0.82598477  0.49760583     0.08600
H35         H  0.48586891  0.90085141  0.46826735     0.06100
H36         H  0.47864536  0.90004766  0.52747109     0.05900
C37         C  0.50508268  0.14742460  0.51669269     0.03000
C38         C  0.50730043  0.16052838  0.49948374    -0.13200
C39         C  0.50466464  0.14614469  0.48287053     0.00500
C40         C  0.49956507  0.11858721  0.48359995    -0.11700
C41         C  0.49805579  0.10507456  0.50052679     0.03000
C42         C  0.50079434  0.11956807  0.51701856    -0.11100
H43         H  0.51150023  0.18179215  0.49898754     0.08600
H44         H  0.49664998  0.10751924  0.47088201     0.06100
H45         H  0.49958271  0.10912400  0.53012803     0.05900
C46         C  0.14037063  0.50202870  0.48316257     0.03000
C47         C  0.11229586  0.50039113  0.48420279    -0.13200
C48         C  0.09924873  0.50062070  0.50130257     0.00500
C49         C  0.11438421  0.50184803  0.51757441    -0.11700
C50         C  0.14253833  0.50308490  0.51692208     0.03000
C51         C  0.15541079  0.50316117  0.49962846    -0.11100
H52         H  0.10046594  0.49861559  0.47169394     0.08600
H53         H  0.10415028  0.50219882  0.53077923     0.06100
H54         H  0.17708895  0.50390423  0.49897941     0.05900
C55         C  0.72876757  0.02886145  0.82441065     0.80100
N56         N  0.72241937  0.02983546  0.84266899    -0.78200
C57         C  0.71562355  0.00737201  0.85213095     0.82500
N58         N  0.71493753  0.98357380  0.84306829    -0.78200
C59         C  0.72147861  0.98206217  0.82485491     0.82600
N60         N  0.72830384  0.00480800  0.81561359    -0.79900
O61         O  0.70988964  0.26225392  0.75568125    -0.74600
O62         O  0.77981365  0.27052103  0.77706140    -0.74600
O63         O  0.74621029  0.30215222  0.75657114    -0.74700
O64         O  0.74300328  0.23071298  0.77601551    -0.74700
O65         O  0.76198485  0.21481190  0.75040679    -0.74600
O66         O  0.76431942  0.28601954  0.73079033    -0.74600
O67         O  0.79821011  0.25512776  0.75111736    -0.74600
O68         O  0.72833557  0.24602926  0.73004675    -0.74700
Ni69       Ni  0.74414341  0.26695025  0.76728960     1.25400
Ni70       Ni  0.76391798  0.24993245  0.73970878     1.25400
C71         C  0.70755504  0.25334698  0.73915955     0.87600
C72         C  0.80058076  0.26402084  0.76763826     0.87500
C73         C  0.75510158  0.30577663  0.74014710     0.87600
C74         C  0.75164636  0.21098468  0.76638477     0.87700
O75         O  0.72948635  0.70808273  0.75312520    -0.74600
O76         O  0.71906450  0.77715986  0.77541142    -0.74600
O77         O  0.68896738  0.74481561  0.75341374    -0.74700
O78         O  0.75924601  0.74052888  0.77507049    -0.74700
O79         O  0.77643139  0.76084498  0.75038842    -0.74600
O80         O  0.70664510  0.76333299  0.72820394    -0.74600
O81         O  0.73552169  0.79658923  0.75013208    -0.74600
O82         O  0.74777711  0.72763207  0.72851223    -0.74700
Ni83       Ni  0.72353149  0.74193669  0.76513985     1.25400
Ni84       Ni  0.74215345  0.76278697  0.73842933     1.25400
C85         C  0.74069779  0.70642732  0.73721892     0.87600
C86         C  0.72580102  0.79829932  0.76647668     0.87500
C87         C  0.68622395  0.75475773  0.73716124     0.87600
C88         C  0.77944791  0.75016721  0.76637183     0.87700
C89         C  0.00865948  0.72982805  0.82625074     0.80100
N90         N  0.98456313  0.73314980  0.81768098    -0.78200
C91         C  0.96129519  0.73118546  0.82741213     0.82500
N92         N  0.96242828  0.72545872  0.84575559    -0.78200
C93         C  0.98624863  0.72226320  0.85458627     0.82600
N94         N  0.00929653  0.72453730  0.84470202    -0.79900
O95         O  0.22160429  0.73762050  0.72523173    -0.74600
O96         O  0.22716445  0.80651160  0.74859947    -0.74600
O97         O  0.25883463  0.77701362  0.72571598    -0.74700
O98         O  0.18978552  0.76698553  0.74797084    -0.74700
O99         O  0.20904200  0.74733526  0.77228220    -0.74600
O100        O  0.27832155  0.75864212  0.75042770    -0.74600
O101        O  0.24609279  0.78737846  0.77317997    -0.74600
O102        O  0.24129631  0.71876256  0.74963702    -0.74700
Ni103      Ni  0.22366004  0.77273736  0.73602415     1.25400
Ni104      Ni  0.24438173  0.75238313  0.76225018     1.25400
C105        C  0.23052280  0.71676451  0.73360063     0.87600
C106        C  0.23752228  0.80837352  0.76478815     0.87500
C107        C  0.27995898  0.76933273  0.73434028     0.87600
C108        C  0.18795240  0.75532197  0.76371662     0.87700
C109        C  0.98536069  0.27902351  0.82409890     0.80100
N110        N  0.98642184  0.28586897  0.84223781    -0.78200
C111        C  0.01019886  0.28679159  0.85135438     0.82500
N112        N  0.03318385  0.28129654  0.84202482    -0.78200
C113        C  0.03258119  0.27480637  0.82375145     0.82600
N114        N  0.00851540  0.27364931  0.81494412    -0.79900
O115        O  0.28631954  0.24549559  0.72494934    -0.74600
O116        O  0.21639912  0.25170068  0.74627776    -0.74600
O117        O  0.24656024  0.28265066  0.72357100    -0.74700
O118        O  0.25594364  0.21467424  0.74766435    -0.74700
O119        O  0.27322912  0.23529292  0.77220231    -0.74600
O120        O  0.26433560  0.30311051  0.74798034    -0.74600
O121        O  0.23402352  0.27248754  0.77059162    -0.74600
O122        O  0.30382866  0.26603289  0.74947141    -0.74700
Ni123      Ni  0.25072759  0.24789275  0.73471907     1.25400
Ni124      Ni  0.26952749  0.26993285  0.76090863     1.25400
C125        C  0.30656205  0.25506101  0.73360840     0.87600
C126        C  0.21367067  0.26304323  0.76204535     0.87500
C127        C  0.25364180  0.30418371  0.73187239     0.87600
C128        C  0.26550091  0.21382390  0.76411712     0.87700
C129        C  0.26877714  0.03384544  0.82919106     0.80100
N130        N  0.27658033  0.03296226  0.84718520    -0.78200
C131        C  0.27727369  0.00944179  0.85661819     0.82500
N132        N  0.27052211  0.98651110  0.84769928    -0.78200
C133        C  0.26269212  0.98681280  0.82970111     0.82600
N134        N  0.26198480  0.01064069  0.82047432    -0.79900
C135        C  0.22111898  0.53382422  0.67427348     0.80100
N136        N  0.21517886  0.53415099  0.65593978    -0.78200
C137        C  0.21500769  0.51110463  0.64600536     0.82500
N138        N  0.22048092  0.48753312  0.65462772    -0.78200
C139        C  0.22593975  0.48671857  0.67304458     0.82600
N140        N  0.22642186  0.51005023  0.68274223    -0.79900
C141        C  0.48489880  0.24591037  0.66954600     0.80100
N142        N  0.48508266  0.23769648  0.65166990    -0.78200
C143        C  0.50864040  0.23444529  0.64250594     0.82500
N144        N  0.53216084  0.23966641  0.65135503    -0.78200
C145        C  0.53211463  0.24791724  0.66928691     0.82600
N146        N  0.50842661  0.25079092  0.67825527    -0.79900
C147        C  0.50781879  0.77922260  0.67255508     0.80100
N148        N  0.50787332  0.78590184  0.65433890    -0.78200
C149        C  0.48464307  0.79109839  0.64518232     0.82500
N150        N  0.46113502  0.79022590  0.65465415    -0.78200
C151        C  0.46071392  0.78345226  0.67285851     0.82600
N152        N  0.48408701  0.77762450  0.68173518    -0.79900
C153        C  0.76353570  0.52967747  0.67082445     0.80100
N154        N  0.77003360  0.52832410  0.65254701    -0.78200
C155        C  0.77426025  0.50419802  0.64428132     0.82500
N156        N  0.77208545  0.48138641  0.65441603    -0.78200
C157        C  0.76528129  0.48243575  0.67254960     0.82600
N158        N  0.76101967  0.50654862  0.68064254    -0.79900
C159        C  0.36191195  0.99811422  0.01727675     0.03000
C160        C  0.38997877  0.99634160  0.01670027    -0.13200
C161        C  0.40372078  0.99680099  0.99984258     0.00500
C162        C  0.38902529  0.99765237  0.98331118    -0.11700
C163        C  0.36085704  0.99896081  0.98358919     0.03000
C164        C  0.34743033  0.99951255  0.00063981    -0.11100
H165        H  0.40125827  0.99497087  0.02948603     0.08600
H166        H  0.39953542  0.99788231  0.97021089     0.06100
H167        H  0.32583585  0.00182946  0.00094032     0.05900
C168        C  0.01000292  0.35991431  0.98092613     0.03000
C169        C  0.00837570  0.34614973  0.99793530    -0.13200
C170        C  0.00530981  0.36038428  0.01460161     0.00500
C171        C  0.00385820  0.38842844  0.01410691    -0.11700
C172        C  0.00520788  0.40243260  0.99736523     0.03000
C173        C  0.00804120  0.38805000  0.98085723    -0.11100
H174        H  0.00952959  0.32448880  0.99822133     0.08600
H175        H  0.00173383  0.39948594  0.02690510     0.06100
H176        H  0.00884223  0.39886864  0.96789057     0.05900
C177        C  0.03185072  0.74540246  0.17014821     0.80100
N178        N  0.03119553  0.73789871  0.15206302    -0.78200
C179        C  0.00753492  0.73321034  0.14326258     0.82500
N180        N  0.98434123  0.73562730  0.15290346    -0.78200
C181        C  0.98449257  0.74346387  0.17082906     0.82600
N182        N  0.00824450  0.74828262  0.17938440    -0.79900
O183        O  0.26775947  0.77849888  0.23058858    -0.74600
O184        O  0.25796023  0.70937307  0.25294571    -0.74600
O185        O  0.22779437  0.74200087  0.23116117    -0.74700
O186        O  0.29807969  0.74571835  0.25214846    -0.74700
O187        O  0.28135135  0.76572353  0.27715276    -0.74600
O188        O  0.21074137  0.76177368  0.25612678    -0.74600
O189        O  0.24108255  0.72897774  0.27792219    -0.74600
O190        O  0.25073623  0.79793644  0.25558970    -0.74700
Ni191      Ni  0.26349193  0.74318958  0.24083494     1.25400
Ni192      Ni  0.24538731  0.76421519  0.26762614     1.25400
C193        C  0.26065055  0.79971248  0.23932644     0.87600
C194        C  0.24794233  0.70769348  0.26922933     0.87500
C195        C  0.20777277  0.75174679  0.23995727     0.87600
C196        C  0.30135773  0.75659114  0.26799034     0.87700
O197        O  0.76559310  0.80567748  0.25323561    -0.74600
O198        O  0.77437965  0.73545117  0.27391968    -0.74600
O199        O  0.80409275  0.76721124  0.25160400    -0.74700
O200        O  0.73561469  0.77424667  0.27544615    -0.74700
O201        O  0.71579019  0.75668786  0.25064729    -0.74600
O202        O  0.78414428  0.74904128  0.22711510    -0.74600
O203        O  0.75375628  0.71786844  0.24941603    -0.74600
O204        O  0.74632395  0.78768659  0.22832879    -0.74700
Ni205      Ni  0.77062194  0.77123426  0.26447464     1.25400
Ni206      Ni  0.74928525  0.75217455  0.23803240     1.25400
C207        C  0.75479132  0.80809400  0.23725624     0.87600
C208        C  0.76567208  0.71509811  0.26498373     0.87500
C209        C  0.80540302  0.75714525  0.23532213     0.87600
C210        C  0.71434020  0.76712647  0.26678442     0.87700
C211        C  0.72514425  0.03313074  0.17615534     0.80100
N212        N  0.71770681  0.03350892  0.15813029    -0.78200
C213        C  0.71452536  0.01046630  0.14849543     0.82500
N214        N  0.71834056  0.98667242  0.15732130    -0.78200
C215        C  0.72582767  0.98599099  0.17542131     0.82600
N216        N  0.72955828  0.00932698  0.18472501    -0.79900
O217        O  0.74162747  0.23326370  0.22793281    -0.74600
O218        O  0.75036668  0.30346754  0.24793554    -0.74600
O219        O  0.78079355  0.27048449  0.22710137    -0.74700
O220        O  0.71114358  0.26602518  0.24888538    -0.74700
O221        O  0.72928911  0.24906130  0.27453836    -0.74600
O222        O  0.79877544  0.25231376  0.25233717    -0.74600
O223        O  0.76908511  0.28596625  0.27320981    -0.74600
O224        O  0.75913552  0.21549329  0.25349439    -0.74700
Ni225      Ni  0.74533930  0.26894386  0.23707172     1.25400
Ni226      Ni  0.76469334  0.25008662  0.26432062     1.25400
C227        C  0.74888181  0.21274619  0.23735883     0.87600
C228        C  0.76143613  0.30636439  0.26378365     0.87500
C229        C  0.80134202  0.26208437  0.23607481     0.87600
C230        C  0.70869291  0.25661265  0.26527606     0.87700
C231        C  0.27441058  0.02532445  0.17268211     0.80100
N232        N  0.28340687  0.02469675  0.15497192    -0.78200
C233        C  0.29060050  0.00125429  0.14691206     0.82500
N234        N  0.28887437  0.97815211  0.15670108    -0.78200
C235        C  0.27978897  0.97833291  0.17435940     0.82600
N236        N  0.27249207  0.00192380  0.18231269    -0.79900
C237        C  0.97943689  0.28234701  0.17238769     0.80100
N238        N  0.00262262  0.28069215  0.18210808    -0.78200
C239        C  0.02653043  0.28568474  0.17395263     0.82500
N240        N  0.02700884  0.29299382  0.15583665    -0.78200
C241        C  0.00391059  0.29477825  0.14594544     0.82600
N242        N  0.98016241  0.28926827  0.15424190    -0.79900
O243        O  0.24562813  0.20828435  0.25055345    -0.74600
O244        O  0.23975768  0.27792257  0.27234276    -0.74600
O245        O  0.20833497  0.24764141  0.25063842    -0.74700
O246        O  0.27766341  0.23854043  0.27247746    -0.74700
O247        O  0.29682072  0.25673074  0.24772311    -0.74600
O248        O  0.22747030  0.26524882  0.22557066    -0.74600
O249        O  0.25907417  0.29592716  0.24744706    -0.74600
O250        O  0.26513971  0.22619088  0.22576421    -0.74700
Ni251      Ni  0.24226069  0.24244994  0.26241552     1.25400
Ni252      Ni  0.26282273  0.26167961  0.23574287     1.25400
C253        C  0.25603278  0.20576880  0.23446332     0.87600
C254        C  0.24799387  0.29837894  0.26330831     0.87500
C255        C  0.20652672  0.25786567  0.23445390     0.87600
C256        C  0.29874407  0.24594100  0.26376397     0.87700
C257        C  0.48117073  0.22786245  0.32462492     0.80100
N258        N  0.50507489  0.23192645  0.31605380    -0.78200
C259        C  0.52848989  0.22923462  0.32554748     0.82500
N260        N  0.52785091  0.22263701  0.34376901    -0.78200
C261        C  0.50419182  0.21866141  0.35261569     0.82600
N262        N  0.48104402  0.22146694  0.34290246    -0.79900
C263        C  0.22647999  0.52362047  0.32745700     0.80100
N264        N  0.22022359  0.52295145  0.34575187    -0.78200
C265        C  0.21632037  0.49923959  0.35454882     0.82500
N266        N  0.21884308  0.47610185  0.34496681    -0.78200
C267        C  0.22573385  0.47620312  0.32684308     0.82600
N268        N  0.22930426  0.50012237  0.31809016    -0.79900
C269        C  0.77951685  0.53404185  0.32517680     0.80100
N270        N  0.77603652  0.51090337  0.31560719    -0.78200
C271        C  0.77792668  0.48683704  0.32432216     0.82500
N272        N  0.78350420  0.48608884  0.34269418    -0.78200
C273        C  0.78753984  0.50901296  0.35233829     0.82600
N274        N  0.78543601  0.53294581  0.34350580    -0.79900
C275        C  0.53076967  0.78131045  0.32542737     0.80100
N276        N  0.52944680  0.78753052  0.34368625    -0.78200
C277        C  0.50575457  0.78759292  0.35285856     0.82500
N278        N  0.48306520  0.78089384  0.34362690    -0.78200
C279        C  0.48387171  0.77455745  0.32540496     0.82600
N280        N  0.50772743  0.77504341  0.31631059    -0.79900
C281        C  0.45518249  0.23022756  0.31446882    -0.20000
C282        C  0.45292571  0.22697369  0.29505316     0.36200
C283        C  0.42746287  0.22849742  0.28661834    -0.26000
C284        C  0.40428014  0.23366816  0.29700615     0.02600
C285        C  0.40650054  0.23691559  0.31630150     0.27500
C286        C  0.43175007  0.23493220  0.32478457    -0.25100
N287        N  0.47617626  0.22144836  0.28396492    -0.82500
H288        H  0.42565707  0.22570641  0.27182026     0.13300
C289        C  0.37774647  0.23598017  0.28763387     0.02600
N290        N  0.38308447  0.24255597  0.32721361    -0.81100
H291        H  0.43310065  0.23751095  0.33961840     0.18100
C292        C  0.35648469  0.21979798  0.29358443    -0.25900
C293        C  0.33047308  0.22293290  0.28637838     0.36100
C294        C  0.32573361  0.24207091  0.27224932    -0.19900
C295        C  0.34734760  0.25760125  0.26584547    -0.25200
C296        C  0.37315206  0.25504628  0.27356255     0.27500
H297        H  0.36012362  0.20498872  0.30427066     0.13200
N298        N  0.30908536  0.20648332  0.29330103    -0.82500
H299        H  0.34397935  0.27234272  0.25507971     0.18100
N300        N  0.39455658  0.27213408  0.26745031    -0.81100
H301        H  0.31649684  0.19193048  0.30235843     0.33700
H302        H  0.29663985  0.21879647  0.30126128     0.38200
H303        H  0.38790874  0.28504039  0.25699517     0.33700
H304        H  0.40010997  0.28421461  0.27859515     0.30400
H305        H  0.38805814  0.24413865  0.34120956     0.33700
H306        H  0.37574910  0.26127507  0.32312214     0.30400
H307        H  0.48741587  0.23906877  0.28328963     0.38300
H308        H  0.47061373  0.21713868  0.27035725     0.33700
C309        C  0.24426968  0.32524967  0.27120205    -0.20000
C310        C  0.21840412  0.33501293  0.27530832     0.36200
C311        C  0.21559070  0.36048741  0.28332989    -0.26000
C312        C  0.23814959  0.37616383  0.28725342     0.02600
C313        C  0.26396586  0.36656066  0.28290612     0.27500
C314        C  0.26677457  0.34118614  0.27474528    -0.25100
N315        N  0.19518758  0.31904162  0.27123780    -0.82500
H316        H  0.19583440  0.36803504  0.28676950     0.13300
C317        C  0.23464636  0.40187083  0.29704709     0.02600
N318        N  0.28717521  0.38240496  0.28718680    -0.81100
H319        H  0.28657016  0.33353678  0.27151559     0.18100
C320        C  0.23736913  0.40217324  0.31626316    -0.25900
C321        C  0.23472769  0.42606345  0.32629930     0.36100
C322        C  0.22914493  0.45037540  0.31680118    -0.19900
C323        C  0.22636213  0.44984271  0.29743621    -0.25200
C324        C  0.22891679  0.42576909  0.28748266     0.27500
H325        H  0.24177630  0.38360153  0.32344534     0.13200
N326        N  0.23805491  0.42559478  0.34604834    -0.82500
H327        H  0.22181159  0.46817543  0.29004010     0.18100
N328        N  0.22540135  0.42537816  0.26776334    -0.81100
H329        H  0.24115671  0.40603909  0.35080905     0.33700
H330        H  0.25547595  0.43626638  0.34915431     0.38200
H331        H  0.22089817  0.44457706  0.26283334     0.33700
H332        H  0.24370185  0.41990268  0.26185849     0.30400
H333        H  0.30468086  0.37230141  0.28338335     0.33700
H334        H  0.28627560  0.39976310  0.27909422     0.30400
H335        H  0.19421475  0.31670037  0.25689439     0.38300
H336        H  0.17767469  0.32911103  0.27513461     0.33700
C337        C  0.17981767  0.26140907  0.22603078    -0.20000
C338        C  0.17567048  0.25743814  0.20694625     0.36200
C339        C  0.15008750  0.26178941  0.19943546    -0.26000
C340        C  0.12870717  0.27040026  0.21053899     0.02600
C341        C  0.13277956  0.27410210  0.22966917     0.27500
C342        C  0.15824388  0.26917406  0.23726485    -0.25100
N343        N  0.19733484  0.24868416  0.19532403    -0.82500
H344        H  0.14674923  0.25843612  0.18481862     0.13300
C345        C  0.10226607  0.27553490  0.20181650     0.02600
N346        N  0.11122783  0.28337471  0.24120165    -0.81100
H347        H  0.16148853  0.27222623  0.25192433     0.18100
C348        C  0.07948330  0.26242769  0.20858150    -0.25900
C349        C  0.05420612  0.26634889  0.20042929     0.36100
C350        C  0.05195795  0.28283705  0.18449746    -0.19900
C351        C  0.07484287  0.29616642  0.17794780    -0.25200
C352        C  0.09980833  0.29308236  0.18662604     0.27500
H353        H  0.08147356  0.24897432  0.22027548     0.13200
N354        N  0.03116878  0.25310509  0.20808665    -0.82500
H355        H  0.07325858  0.30928542  0.16605057     0.18100
N356        N  0.12270061  0.30778270  0.18012893    -0.81100
H357        H  0.03682373  0.24013723  0.21877508     0.33700
H358        H  0.01923519  0.26783249  0.21426783     0.38200
H359        H  0.11754479  0.31978185  0.16880350     0.33700
H360        H  0.12857877  0.32077079  0.19069570     0.30400
H361        H  0.11755729  0.28504861  0.25493048     0.33700
H362        H  0.10608981  0.30268123  0.23680900     0.30400
H363        H  0.20290866  0.22947926  0.19965038     0.38300
H364        H  0.19094940  0.24694190  0.18160265     0.33700
C365        C  0.25769320  0.17894467  0.22576418    -0.20000
C366        C  0.23825414  0.15895835  0.22918334     0.36200
C367        C  0.24097892  0.13368605  0.22082473    -0.26000
C368        C  0.26243190  0.12811860  0.20893611     0.02600
C369        C  0.28173818  0.14805491  0.20540650     0.27500
C370        C  0.27906867  0.17332009  0.21374929    -0.25100
N371        N  0.21549365  0.16455652  0.24073167    -0.82500
H372        H  0.22604412  0.11836736  0.22329665     0.13300
C373        C  0.26413081  0.10150509  0.19991354     0.02600
N374        N  0.30409332  0.14243082  0.19349706    -0.81100
H375        H  0.29402274  0.18855633  0.21110613     0.18100
C376        C  0.26183000  0.09987394  0.18065571    -0.25900
C377        C  0.26383713  0.07517099  0.17146325     0.36100
C378        C  0.26877792  0.05149556  0.18179986    -0.19900
C379        C  0.27014590  0.05319293  0.20119486    -0.25200
C380        C  0.26802174  0.07795080  0.21032974     0.27500
H381        H  0.25835886  0.11803881  0.17277523     0.13200
N382        N  0.26076144  0.07415812  0.15171079    -0.82500
H383        H  0.27386844  0.03528244  0.20927598     0.18100
N384        N  0.27044512  0.07937941  0.23010521    -0.81100
H385        H  0.25764875  0.09334020  0.14626509     0.33700
H386        H  0.24340302  0.06319890  0.14888794     0.38200
H387        H  0.27316931  0.06027433  0.23574278     0.33700
H388        H  0.28782122  0.09023405  0.23311203     0.30400
H389        H  0.31643889  0.15923417  0.19227117     0.33700
H390        H  0.31561741  0.12748122  0.19983815     0.30400
H391        H  0.20404149  0.17931807  0.23411478     0.38300
H392        H  0.20322773  0.14768667  0.24189036     0.33700
C393        C  0.82825026  0.26413031  0.22742044    -0.20000
C394        C  0.85104991  0.25037848  0.23439702     0.36200
C395        C  0.87573052  0.25296549  0.22523993    -0.26000
C396        C  0.87822156  0.26918161  0.20953480     0.02600
C397        C  0.85576269  0.28306845  0.20265978     0.27500
C398        C  0.83101082  0.28024646  0.21156434    -0.25100
N399        N  0.84917374  0.23352593  0.25047834    -0.82500
H400        H  0.89319929  0.24234885  0.23038032     0.13300
C401        C  0.90454320  0.27164127  0.20040000     0.02600
N402        N  0.85828838  0.30016374  0.18673962    -0.81100
H403        H  0.81384197  0.29104404  0.20615824     0.18100
C404        C  0.90741317  0.26269110  0.18215751    -0.25900
C405        C  0.93184438  0.26548604  0.17276786     0.36100
C406        C  0.95367124  0.27773101  0.18183594    -0.19900
C407        C  0.95090230  0.28607787  0.20027028    -0.25200
C408        C  0.92646060  0.28331993  0.20961860     0.27500
H409        H  0.89049961  0.25343093  0.17527855     0.13200
N410        N  0.93466672  0.25559147  0.15422185    -0.82500
H411        H  0.96765720  0.29546500  0.20724788     0.18100
N412        N  0.92361940  0.29274462  0.22828591    -0.81100
H413        H  0.91669190  0.24720727  0.14959745     0.33700
H414        H  0.94876122  0.24004459  0.15454748     0.38200
H415        H  0.94168832  0.30073201  0.23308741     0.33700
H416        H  0.90973987  0.30847346  0.22814122     0.30400
H417        H  0.83982551  0.30882929  0.18335114     0.33700
H418        H  0.87109812  0.31588948  0.19030432     0.30400
H419        H  0.84665888  0.24605355  0.26190958     0.38300
H420        H  0.86719219  0.22326541  0.25271690     0.33700
C421        C  0.76484178  0.33366886  0.27138114    -0.20000
C422        C  0.78541413  0.33976751  0.28415613     0.36200
C423        C  0.78644387  0.36544662  0.29202160    -0.26000
C424        C  0.76781266  0.38521915  0.28704096     0.02600
C425        C  0.74798815  0.37960041  0.27377034     0.27500
C426        C  0.74674410  0.35387586  0.26600487    -0.25100
N427        N  0.80533633  0.32006296  0.28891857    -0.82500
H428        H  0.80186372  0.37015972  0.30206463     0.13300
C429        C  0.76902782  0.41156572  0.29623014     0.02600
N430        N  0.72899576  0.39991981  0.26847991    -0.81100
H431        H  0.73107959  0.34938393  0.25610190     0.18100
C432        C  0.77947220  0.43359981  0.28667078    -0.25900
C433        C  0.78246207  0.45853838  0.29543780     0.36100
C434        C  0.77432893  0.46143650  0.31406169    -0.19900
C435        C  0.76339822  0.43932666  0.32342187    -0.25200
C436        C  0.76061884  0.41443773  0.31466932     0.27500
H437        H  0.78598223  0.43107460  0.27249495     0.13200
N438        N  0.79452967  0.48053661  0.28569452    -0.82500
H439        H  0.75697681  0.44147209  0.33764547     0.18100
N440        N  0.74950044  0.39195605  0.32443108    -0.81100
H441        H  0.79919249  0.47505341  0.27213395     0.33700
H442        H  0.81274903  0.48482841  0.29221630     0.38200
H443        H  0.74447381  0.39732952  0.33795134     0.33700
H444        H  0.73158898  0.38674142  0.31783962     0.30400
H445        H  0.71581689  0.39261641  0.25845265     0.33700
H446        H  0.71739556  0.40443183  0.28010422     0.30400
H447        H  0.81634774  0.31591127  0.27695799     0.38300
H448        H  0.81892741  0.32779412  0.29853702     0.33700
C449        C  0.68174076  0.25418043  0.27365048    -0.20000
C450        C  0.65881046  0.24871663  0.26279641     0.36200
C451        C  0.63373581  0.24604079  0.27143083    -0.26000
C452        C  0.63111342  0.24847445  0.29064935     0.02600
C453        C  0.65394513  0.25412877  0.30148374     0.27500
C454        C  0.67904440  0.25674554  0.29288446    -0.25100
N455        N  0.66114815  0.24506738  0.24315277    -0.82500
H456        H  0.61621851  0.24130201  0.26319722     0.13300
C457        C  0.60455687  0.24381323  0.29931693     0.02600
N458        N  0.65149337  0.25724390  0.32116145    -0.81100
H459        H  0.69656717  0.26104881  0.30122805     0.18100
C460        C  0.60191515  0.22315863  0.31233247    -0.25900
C461        C  0.57721285  0.21786485  0.32076138     0.36100
C462        C  0.55455679  0.23351027  0.31621001    -0.19900
C463        C  0.55701315  0.25378594  0.30282994    -0.25200
C464        C  0.58186322  0.25923006  0.29442095     0.27500
H465        H  0.61911639  0.21083861  0.31582874     0.13200
N466        N  0.57506747  0.19603331  0.33354424    -0.82500
H467        H  0.53966129  0.26583621  0.29926513     0.18100
N468        N  0.58425015  0.28052175  0.28112591    -0.81100
H469        H  0.58083380  0.17849185  0.32673277     0.33700
H470        H  0.58858098  0.19934721  0.34435221     0.38200
H471        H  0.56572478  0.28987009  0.27901877     0.33700
H472        H  0.59702598  0.29497507  0.28673115     0.30400
H473        H  0.67017740  0.26122972  0.32712134     0.33700
H474        H  0.63949755  0.27407245  0.32356117     0.30400
H475        H  0.67270928  0.22787240  0.24094225     0.38300
H476        H  0.64237820  0.24137814  0.23724036     0.33700
C477        C  0.74567148  0.18570410  0.22915887    -0.20000
C478        C  0.74564995  0.16209162  0.24001971     0.36200
C479        C  0.74296265  0.13708665  0.23131903    -0.26000
C480        C  0.74019496  0.13513833  0.21208225     0.02600
C481        C  0.74024825  0.15861349  0.20122986     0.27500
C482        C  0.74279959  0.18359430  0.20987756    -0.25100
N483        N  0.74787796  0.16349105  0.25980768    -0.82500
H484        H  0.74250195  0.11899473  0.23960749     0.13300
C485        C  0.73634774  0.10846186  0.20350541     0.02600
N486        N  0.73794814  0.15694675  0.18144633    -0.81100
H487        H  0.74297587  0.20151436  0.20141381     0.18100
C488        C  0.71333121  0.10395821  0.19282076    -0.25900
C489        C  0.70904197  0.07927074  0.18412016     0.36100
C490        C  0.72813096  0.05859283  0.18623786    -0.19900
C491        C  0.75073872  0.06272151  0.19742642    -0.25200
C492        C  0.75523712  0.08764150  0.20591104     0.27500
H493        H  0.69861535  0.11981590  0.19130819     0.13200
N494        N  0.68523194  0.07499567  0.17329804    -0.82500
H495        H  0.76537323  0.04679956  0.19898883     0.18100
N496        N  0.77913078  0.09211138  0.21659487    -0.81100
H497        H  0.67332847  0.09225602  0.17304291     0.33700
H498        H  0.67398168  0.06015926  0.17990289     0.38200
H499        H  0.79094298  0.07478650  0.21701120     0.33700
H500        H  0.79040582  0.10671527  0.20977336     0.30400
H501        H  0.73814101  0.17605526  0.17549975     0.33700
H502        H  0.75493542  0.14694775  0.17654504     0.30400
H503        H  0.73060866  0.17293710  0.26474851     0.38300
H504        H  0.74810916  0.14427953  0.26560691     0.33700
C505        C  0.73009343  0.96011003  0.18497823    -0.20000
C506        C  0.71305955  0.93798058  0.18187541     0.36200
C507        C  0.71807889  0.91376259  0.19118550    -0.26000
C508        C  0.73962892  0.91134481  0.20350021     0.02600
C509        C  0.75673285  0.93325696  0.20657669     0.27500
C510        C  0.75160800  0.95757817  0.19742574    -0.25100
N511        N  0.69051210  0.94029803  0.16956972    -0.82500
H512        H  0.70512283  0.89668320  0.18890267     0.13300
C513        C  0.74433185  0.88543407  0.21275648     0.02600
N514        N  0.77961277  0.93044897  0.21854689    -0.81100
H515        H  0.76478393  0.97447915  0.19971859     0.18100
C516        C  0.75978261  0.86603257  0.20373955    -0.25900
C517        C  0.76354349  0.84058288  0.21158430     0.36100
C518        C  0.75199914  0.83478615  0.22890678    -0.19900
C519        C  0.73713083  0.85446367  0.23816519    -0.25200
C520        C  0.73285832  0.87974365  0.23010476     0.27500
H521        H  0.76852607  0.87066562  0.19040951     0.13200
N522        N  0.77944269  0.82079951  0.20222223    -0.82500
H523        H  0.72825812  0.84982327  0.25144410     0.18100
N524        N  0.71628826  0.89933219  0.23913716    -0.81100
H525        H  0.78783758  0.82882057  0.19020335     0.33700
H526        H  0.76648827  0.80561906  0.19792174     0.38200
H527        H  0.70890945  0.89175716  0.25159407     0.33700
H528        H  0.72837052  0.91569111  0.24252985     0.30400
H529        H  0.79049010  0.94830713  0.21901896     0.33700
H530        H  0.77263088  0.92698045  0.23194186     0.30400
H531        H  0.67720672  0.95418463  0.17530923     0.38300
H532        H  0.68018824  0.92213169  0.16874367     0.33700
C533        C  0.68758961  0.77104962  0.27533822    -0.20000
C534        C  0.68164179  0.79371166  0.28630264     0.36200
C535        C  0.65584859  0.79654585  0.29397131    -0.26000
C536        C  0.63589832  0.77727888  0.29085592     0.02600
C537        C  0.64178731  0.75477513  0.27981465     0.27500
C538        C  0.66744088  0.75205663  0.27201469    -0.25100
N539        N  0.70157474  0.81400373  0.28929342    -0.82500
H540        H  0.65118967  0.81391073  0.30234595     0.13300
C541        C  0.60913730  0.78024723  0.29968465     0.02600
N542        N  0.62179342  0.73452615  0.27684562    -0.81100
H543        H  0.67191819  0.73468717  0.26359801     0.18100
C544        C  0.58605574  0.78148892  0.28860835    -0.25900
C545        C  0.56022134  0.78187358  0.29645083     0.36100
C546        C  0.55739727  0.78121481  0.31595378    -0.19900
C547        C  0.58076864  0.78088226  0.32694174    -0.25200
C548        C  0.60647593  0.78035883  0.31905057     0.27500
H549        H  0.58825210  0.78170074  0.27370928     0.13200
N550        N  0.53710204  0.78328490  0.28459906    -0.82500
H551        H  0.57910022  0.78047169  0.34185840     0.18100
N552        N  0.62990751  0.77944447  0.33064463    -0.81100
H553        H  0.54285710  0.78644989  0.27087876     0.33700
H554        H  0.52792983  0.76449415  0.28486755     0.38200
H555        H  0.62454334  0.77991223  0.34460521     0.33700
H556        H  0.63942277  0.76106748  0.32841345     0.30400
H557        H  0.62925645  0.71930884  0.26838661     0.33700
H558        H  0.61760439  0.72572490  0.28965097     0.30400
H559        H  0.70577311  0.82276814  0.27649441     0.38300
H560        H  0.69399702  0.82926869  0.29769893     0.33700
C561        C  0.76912206  0.68793340  0.27269790    -0.20000
C562        C  0.79330312  0.67983770  0.28124255     0.36200
C563        C  0.79531513  0.65387982  0.28871549    -0.26000
C564        C  0.77368453  0.63607761  0.28771463     0.02600
C565        C  0.74977380  0.64394144  0.27887847     0.27500
C566        C  0.74778987  0.66977357  0.27132001    -0.25100
N567        N  0.81570458  0.69786520  0.28213895    -0.82500
H568        H  0.81363240  0.64757337  0.29553881     0.13300
C569        C  0.77557374  0.60983620  0.29704582     0.02600
N570        N  0.72742744  0.62584753  0.27804968    -0.81100
H571        H  0.72928941  0.67600353  0.26469944     0.18100
C572        C  0.76562061  0.60746562  0.31504346    -0.25900
C573        C  0.76635115  0.58284415  0.32442665     0.36100
C574        C  0.77755461  0.56020306  0.31560800    -0.19900
C575        C  0.78727513  0.56262027  0.29744986    -0.25200
C576        C  0.78643313  0.58730716  0.28807393     0.27500
H577        H  0.75701679  0.62490542  0.32170171     0.13200
N578        N  0.75526647  0.58065737  0.34269861    -0.82500
H579        H  0.79588952  0.54529537  0.29066538     0.18100
N580        N  0.79675179  0.58969582  0.26960394    -0.81100
H581        H  0.74797837  0.59919483  0.34718601     0.33700
H582        H  0.73874378  0.56785648  0.34192856     0.38200
H583        H  0.80433485  0.57130920  0.26506858     0.33700
H584        H  0.78069657  0.59444992  0.26088071     0.30400
H585        H  0.71114264  0.63488197  0.27137413     0.33700
H586        H  0.73311769  0.60953221  0.26990544     0.30400
H587        H  0.82194094  0.70165726  0.26859100     0.38300
H588        H  0.83191371  0.68879484  0.28889666     0.33700
C589        C  0.27740783  0.95283393  0.18456342    -0.20000
C590        C  0.29856713  0.93412069  0.18478261     0.36200
C591        C  0.29525720  0.90945981  0.19377873    -0.26000
C592        C  0.27079789  0.90268603  0.20213879     0.02600
C593        C  0.24941922  0.92134383  0.20173287     0.27500
C594        C  0.25316516  0.94646955  0.19328041    -0.25100
N595        N  0.32362350  0.94028856  0.17613436    -0.82500
H596        H  0.31193178  0.89552285  0.19424064     0.13300
C597        C  0.26806043  0.87621018  0.21147869     0.02600
N598        N  0.22383340  0.91445108  0.20950124    -0.81100
H599        H  0.23677412  0.96074196  0.19285113     0.18100
C600        C  0.25948724  0.87522142  0.22991376    -0.25900
C601        C  0.25705232  0.85075999  0.23942544     0.36100
C602        C  0.26356552  0.82646905  0.23028873    -0.19900
C603        C  0.27232502  0.82763411  0.21181830    -0.25200
C604        C  0.27440853  0.85211029  0.20230025     0.27500
H605        H  0.25500392  0.89376878  0.23703428     0.13200
N606        N  0.24799606  0.85073434  0.25828565    -0.82500
H607        H  0.27720353  0.80929652  0.20457993     0.18100
N608        N  0.28258175  0.85253683  0.18324950    -0.81100
H609        H  0.24266825  0.87006034  0.26248175     0.33700
H610        H  0.26421694  0.84499860  0.26655904     0.38200
H611        H  0.28665774  0.83316358  0.17855282     0.33700
H612        H  0.26639924  0.85965523  0.17544752     0.30400
H613        H  0.21027762  0.93034131  0.20803178     0.33700
H614        H  0.21612365  0.89852153  0.20181227     0.30400
H615        H  0.32744680  0.92564277  0.16615610     0.38300
H616        H  0.33869511  0.93907883  0.18615731     0.33700
C617        C  0.32872788  0.75863082  0.27565361    -0.20000
C618        C  0.33793708  0.78249580  0.28391469     0.36200
C619        C  0.36420612  0.78356478  0.29095011    -0.26000
C620        C  0.38135065  0.76135233  0.28973823     0.02600
C621        C  0.37236808  0.73769125  0.28121122     0.27500
C622        C  0.34611178  0.73657835  0.27418041    -0.25100
N623        N  0.32078909  0.80564608  0.28478656    -0.82500
H624        H  0.37138130  0.80173667  0.29744359     0.13300
C625        C  0.40847023  0.76299550  0.29793156     0.02600
N626        N  0.38994871  0.71493960  0.27980946    -0.81100
H627        H  0.33906258  0.71835216  0.26769346     0.18100
C628        C  0.41328182  0.75068534  0.31502137    -0.25900
C629        C  0.43818632  0.75331071  0.32391597     0.36100
C630        C  0.45860962  0.76863566  0.31549974    -0.19900
C631        C  0.45410643  0.77996158  0.29798355    -0.25200
C632        C  0.42911384  0.77736424  0.28913436     0.27500
H633        H  0.39735840  0.73939749  0.32156342     0.13200
N634        N  0.44281689  0.74053111  0.34146175    -0.82500
H635        H  0.46978247  0.79165485  0.29150242     0.18100
N636        N  0.42438049  0.78962278  0.27143620    -0.81100
H637        H  0.42575178  0.73012632  0.34575881     0.33700
H638        H  0.45791214  0.72622474  0.33958498     0.38200
H639        H  0.44153486  0.79966090  0.26689970     0.33700
H640        H  0.42080254  0.77427479  0.26193886     0.30400
H641        H  0.38022155  0.69902848  0.27325945     0.33700
H642        H  0.40595369  0.72039040  0.27128754     0.30400
H643        H  0.31691255  0.81181866  0.27122427     0.38300
H644        H  0.33065293  0.82155177  0.29126826     0.33700
C645        C  0.24452127  0.68073145  0.27799957    -0.20000
C646        C  0.23026812  0.67693273  0.29476380     0.36200
C647        C  0.22744539  0.65094311  0.30208695    -0.26000
C648        C  0.23913756  0.62862187  0.29350510     0.02600
C649        C  0.25347437  0.63230249  0.27690163     0.27500
C650        C  0.25575762  0.65814941  0.26926647    -0.25100
N651        N  0.21848621  0.69925930  0.30432139    -0.82500
H652        H  0.21617025  0.64806683  0.31472276     0.13300
C653        C  0.23634597  0.60159730  0.30217151     0.02600
N654        N  0.26598350  0.60981867  0.26797075    -0.81100
H655        H  0.26680738  0.66064179  0.25650607     0.18100
C656        C  0.22558171  0.58036926  0.29185885    -0.25900
C657        C  0.22268870  0.55457019  0.29952501     0.36100
C658        C  0.23031859  0.54995672  0.31811743    -0.19900
C659        C  0.24075074  0.57135764  0.32846761    -0.25200
C660        C  0.24408328  0.59696431  0.32068483     0.27500
H661        H  0.21922940  0.58401901  0.27774843     0.13200
N662        N  0.21102824  0.53348531  0.28868316    -0.82500
H663        H  0.24665552  0.56801684  0.34270768     0.18100
N664        N  0.25546574  0.61825235  0.33149196    -0.81100
H665        H  0.20413808  0.54092915  0.27601565     0.33700
H666        H  0.22634874  0.51997914  0.28548621     0.38200
H667        H  0.25986408  0.61164992  0.34488168     0.33700
H668        H  0.27370562  0.62354125  0.32541932     0.30400
H669        H  0.27561717  0.61583460  0.25583365     0.33700
H670        H  0.28089249  0.60253173  0.27683131     0.30400
H671        H  0.23417886  0.71050279  0.30990210     0.38300
H672        H  0.20712407  0.69269541  0.31558351     0.33700
C673        C  0.05790545  0.74872691  0.18024850    -0.20000
C674        C  0.08322828  0.74745365  0.17132261     0.36200
C675        C  0.10684195  0.74929336  0.18189296    -0.26000
C676        C  0.10605699  0.75168861  0.20118233     0.02600
C677        C  0.08106006  0.75372255  0.21009985     0.27500
C678        C  0.05736808  0.75252384  0.19956734    -0.25100
N679        N  0.08518795  0.74400841  0.15165318    -0.82500
H680        H  0.12613751  0.74817407  0.17506621     0.13300
C681        C  0.13164768  0.75115328  0.21179608     0.02600
N682        N  0.07980107  0.75634204  0.22986913    -0.81100
H683        H  0.03833796  0.75378881  0.20669397     0.18100
C684        C  0.13830182  0.77264985  0.22340733    -0.25900
C685        C  0.16286774  0.77317010  0.23301335     0.36100
C686        C  0.18106097  0.75162798  0.23100837    -0.19900
C687        C  0.17428594  0.73010359  0.21948710    -0.25200
C688        C  0.14969678  0.72948907  0.21002826     0.27500
H689        H  0.12454827  0.78938275  0.22460448     0.13200
N690        N  0.16973347  0.79586172  0.24426437    -0.82500
H691        H  0.18819829  0.71355262  0.21796786     0.18100
N692        N  0.14289966  0.70688606  0.19867436    -0.81100
H693        H  0.15412877  0.80985705  0.24433053     0.33700
H694        H  0.18617422  0.80532268  0.23811236     0.38200
H695        H  0.15839861  0.69273904  0.19874554     0.33700
H696        H  0.12623879  0.69759759  0.20460966     0.30400
H697        H  0.05988776  0.75776994  0.23429365     0.33700
H698        H  0.08759438  0.73877632  0.23564340     0.30400
H699        H  0.08037584  0.72406944  0.14883387     0.38300
H700        H  0.10498600  0.74647434  0.14723442     0.33700
C701        C  0.83186941  0.75483072  0.22593842    -0.20000
C702        C  0.83409209  0.75283422  0.20646067     0.36200
C703        C  0.85956687  0.75056391  0.19833125    -0.26000
C704        C  0.88291590  0.75015936  0.20911716     0.02600
C705        C  0.88084527  0.75195074  0.22849741     0.27500
C706        C  0.85539778  0.75451947  0.23669437    -0.25100
N707        N  0.81061593  0.75346632  0.19492556    -0.82500
H708        H  0.86129634  0.74937836  0.18342395     0.13300
C709        C  0.90935841  0.74788667  0.19980531     0.02600
N710        N  0.90457566  0.75074856  0.23976747    -0.81100
H711        H  0.85393381  0.75577007  0.25160643     0.18100
C712        C  0.92821499  0.76853864  0.20173502    -0.25900
C713        C  0.95297877  0.76754404  0.19244856     0.36100
C714        C  0.95893213  0.74540779  0.18106398    -0.19900
C715        C  0.94004853  0.72480377  0.17913239    -0.25200
C716        C  0.91545487  0.72565905  0.18855421     0.27500
H717        H  0.92333317  0.78572068  0.21022728     0.13200
N718        N  0.97174894  0.78921101  0.19412710    -0.82500
H719        H  0.94471098  0.70775538  0.17045099     0.18100
N720        N  0.89669488  0.70397619  0.18687770    -0.81100
H721        H  0.96429142  0.80396275  0.20298951     0.33700
H722        H  0.97358722  0.79814070  0.18109996     0.38200
H723        H  0.90419375  0.68916097  0.17808180     0.33700
H724        H  0.89475886  0.69514898  0.19992755     0.30400
H725        H  0.89964316  0.75230895  0.25375956     0.33700
H726        H  0.91316012  0.73179358  0.23797450     0.30400
H727        H  0.80222684  0.77253488  0.19607614     0.38300
H728        H  0.81577834  0.75109600  0.18100087     0.33700
C729        C  0.00373789  0.34665770  0.03283006    -0.20000
C730        C  0.02380486  0.32860726  0.03885419     0.36200
C731        C  0.02283789  0.31840105  0.05699631    -0.26000
C732        C  0.00265781  0.32641563  0.06926752     0.02600
C733        C  0.98255938  0.34427991  0.06330363     0.27500
C734        C  0.98313063  0.35398041  0.04508723    -0.25100
N735        N  0.04565128  0.32162243  0.02684922    -0.82500
H736        H  0.03837410  0.30488059  0.06182535     0.13300
C737        C  0.00369946  0.31738657  0.08871682     0.02600
N738        N  0.96231690  0.35331041  0.07600041    -0.81100
H739        H  0.96779271  0.36792596  0.04053836     0.18100
C740        C  0.01828510  0.33253885  0.10153434    -0.25900
C741        C  0.01894836  0.32532800  0.12031653     0.36100
C742        C  0.00448815  0.30266036  0.12629973    -0.19900
C743        C  0.99006090  0.28741579  0.11341386    -0.25200
C744        C  0.98980360  0.29438260  0.09458404     0.27500
H745        H  0.02892274  0.35019481  0.09685935     0.13200
N746        N  0.03374142  0.34120154  0.13336916    -0.82500
H747        H  0.97922919  0.26985545  0.11805081     0.18100
N748        N  0.97592325  0.27800081  0.08136414    -0.81100
H749        H  0.04334824  0.35710189  0.12668368     0.33700
H750        H  0.01996453  0.34972528  0.14251269     0.38200
H751        H  0.96726494  0.26145761  0.08788856     0.33700
H752        H  0.96014972  0.28929163  0.07586536     0.30400
H753        H  0.94944537  0.36701865  0.06957213     0.33700
H754        H  0.95060520  0.33680490  0.07964443     0.30400
H755        H  0.05666297  0.33904191  0.02433703     0.38300
H756        H  0.05868199  0.30818923  0.03341791     0.33700
C757        C  0.34828366  0.99988409  0.03544685    -0.20000
C758        C  0.32633579  0.98331879  0.04006750     0.36200
C759        C  0.31543424  0.98468331  0.05796202    -0.26000
C760        C  0.32628426  0.00197533  0.07122071     0.02600
C761        C  0.34775475  0.01887084  0.06656279     0.27500
C762        C  0.35845464  0.01776578  0.04868817    -0.25100
N763        N  0.31577895  0.96465517  0.02683147    -0.82500
H764        H  0.29894812  0.97171367  0.06178154     0.13300
C765        C  0.31615217  0.00120505  0.09032886     0.02600
N766        N  0.35904288  0.03651634  0.08018510    -0.81100
H767        H  0.37506762  0.03071996  0.04510739     0.18100
C768        C  0.32892062  0.98442464  0.10314179    -0.25900
C769        C  0.32098146  0.98408409  0.12174505     0.36100
C770        C  0.29981636  0.00093568  0.12753035    -0.19900
C771        C  0.28703885  0.01768532  0.11459929    -0.25200
C772        C  0.29491151  0.01784447  0.09597185     0.27500
H773        H  0.34539073  0.97185828  0.09861785     0.13200
N774        N  0.33470462  0.96717988  0.13481114    -0.82500
H775        H  0.27065202  0.03043636  0.11901032     0.18100
N776        N  0.28131029  0.03455315  0.08272849    -0.81100
H777        H  0.34961932  0.95594467  0.12825800     0.33700
H778        H  0.34446084  0.97962277  0.14427711     0.38200
H779        H  0.26581696  0.04525563  0.08908935     0.33700
H780        H  0.29499172  0.04872117  0.07789939     0.30400
H781        H  0.37509650  0.04723615  0.07463478     0.33700
H782        H  0.34436788  0.05063047  0.08366200     0.30400
H783        H  0.33078411  0.95058752  0.02402962     0.38300
H784        H  0.29965258  0.95407638  0.03243448     0.33700
C785        C  0.28647372  0.00843292  0.87620746    -0.20000
C786        C  0.28553955  0.03112024  0.88791916     0.36200
C787        C  0.29598307  0.02931195  0.90594777    -0.26000
C788        C  0.30740166  0.00545529  0.91258818     0.02600
C789        C  0.30768375  0.98261439  0.90113698     0.27500
C790        C  0.29701312  0.98428425  0.88318592    -0.25100
N791        N  0.27389228  0.05586505  0.88159558    -0.82500
H792        H  0.29534173  0.04668042  0.91489681     0.13300
C793        C  0.31996762  0.00495022  0.93125773     0.02600
N794        N  0.31944606  0.95799037  0.90760208    -0.81100
H795        H  0.29778423  0.96676179  0.87439481     0.18100
C796        C  0.31183107  0.98571433  0.94428062    -0.25900
C797        C  0.32466285  0.98346905  0.96154935     0.36100
C798        C  0.34574789  0.00117306  0.96597372    -0.19900
C799        C  0.35321273  0.02097000  0.95321000    -0.25200
C800        C  0.34069313  0.02296752  0.93587747     0.27500
H801        H  0.29571467  0.97210216  0.94080185     0.13200
N802        N  0.31680765  0.96293714  0.97439418    -0.82500
H803        H  0.36918604  0.03473907  0.95672140     0.18100
N804        N  0.34934623  0.04286282  0.92280170    -0.81100
H805        H  0.33301875  0.94983148  0.97597060     0.33700
H806        H  0.30097440  0.95164189  0.96902298     0.38200
H807        H  0.36457274  0.05468554  0.92843003     0.33700
H808        H  0.35767843  0.03282962  0.91151423     0.30400
H809        H  0.31788460  0.94304559  0.89754923     0.33700
H810        H  0.33990714  0.96137329  0.90962802     0.30400
H811        H  0.25345831  0.05249700  0.87943680     0.38300
H812        H  0.27528957  0.07062992  0.89178983     0.33700
C813        C  0.26708687  0.18768613  0.77395385    -0.20000
C814        C  0.26491512  0.18589479  0.79342113     0.36200
C815        C  0.26582787  0.16060698  0.80203986    -0.26000
C816        C  0.26862672  0.13700962  0.79168634     0.02600
C817        C  0.27072443  0.13877680  0.77226833     0.27500
C818        C  0.26978550  0.16402989  0.76362321    -0.25100
N819        N  0.26101895  0.20960989  0.80435581    -0.82500
H820        H  0.26377060  0.15921753  0.81691798     0.13300
C821        C  0.26889985  0.11057453  0.80132939     0.02600
N822        N  0.27397643  0.11490257  0.76141351    -0.81100
H823        H  0.27142286  0.16525358  0.74871439     0.18100
C824        C  0.25004840  0.09097641  0.79640372    -0.25900
C825        C  0.24956005  0.06579462  0.80520178     0.36100
C826        C  0.26841090  0.06000496  0.81926830    -0.19900
C827        C  0.28705561  0.07980054  0.82432637    -0.25200
C828        C  0.28762275  0.10488845  0.81544677     0.27500
H829        H  0.23536587  0.09553085  0.78579641     0.13200
N830        N  0.22958504  0.04640745  0.80018338    -0.82500
H831        H  0.30158852  0.07553347  0.83508640     0.18100
N832        N  0.30732563  0.12451261  0.82057106    -0.81100
H833        H  0.21741425  0.05374019  0.78952817     0.33700
H834        H  0.21712307  0.04364892  0.81163310     0.38200
H835        H  0.31954099  0.11727800  0.83122638     0.33700
H836        H  0.31977500  0.12758623  0.80915036     0.30400
H837        H  0.27505373  0.11960021  0.74734826     0.33700
H838        H  0.29238116  0.10629858  0.76501630     0.30400
H839        H  0.24230423  0.21766884  0.80082170     0.38300
H840        H  0.26009430  0.20482480  0.81840106     0.33700
C841        C  0.24947852  0.33078567  0.72293321    -0.20000
C842        C  0.23027889  0.33487768  0.70875428     0.36200
C843        C  0.22722608  0.36053573  0.70090972    -0.26000
C844        C  0.24266115  0.38227897  0.70699535     0.02600
C845        C  0.26161699  0.37832292  0.72121019     0.27500
C846        C  0.26478022  0.35270814  0.72903258    -0.25100
N847        N  0.21357844  0.31321981  0.70258115    -0.82500
H848        H  0.21243063  0.36373640  0.69014244     0.13300
C849        C  0.23881139  0.40907411  0.69831540     0.02600
N850        N  0.27777628  0.40030689  0.72751441    -0.81100
H851        H  0.27956116  0.34982099  0.73984385     0.18100
C852        C  0.23126847  0.43095444  0.70929684    -0.25900
C853        C  0.22710245  0.45653021  0.70155392     0.36100
C854        C  0.23070957  0.46037416  0.68229424    -0.19900
C855        C  0.23839697  0.43832163  0.67139866    -0.25200
C856        C  0.24259795  0.41284666  0.67919458     0.27500
H857        H  0.22817093  0.42791270  0.72397238     0.13200
N858        N  0.21870671  0.47830528  0.71318011    -0.82500
H859        H  0.24142582  0.44096141  0.65668581     0.18100
N860        N  0.25095501  0.39080347  0.66779386    -0.81100
H861        H  0.21774269  0.47222608  0.72700012     0.33700
H862        H  0.19917336  0.48349667  0.70930855     0.38200
H863        H  0.25276298  0.39683416  0.65401222     0.33700
H864        H  0.27010957  0.38500661  0.67215568     0.30400
H865        H  0.29066619  0.39413062  0.73811011     0.33700
H866        H  0.28990200  0.40632742  0.71650234     0.30400
H867        H  0.20115660  0.30782519  0.71360460     0.38300
H868        H  0.20091237  0.31952395  0.69189192     0.33700
C869        C  0.33336582  0.25369435  0.72500319    -0.20000
C870        C  0.35262449  0.27403628  0.72785141     0.36200
C871        C  0.37751737  0.27229567  0.71890944    -0.26000
C872        C  0.38333749  0.25087646  0.70713794     0.02600
C873        C  0.36443795  0.23036229  0.70446842     0.27500
C874        C  0.33951772  0.23203476  0.71338067    -0.25100
N875        N  0.34662987  0.29670009  0.73938040    -0.82500
H876        H  0.39232512  0.28789378  0.72086397     0.13300
C877        C  0.40935474  0.25028994  0.69757272     0.02600
N878        N  0.37081411  0.20781137  0.69293210    -0.81100
H879        H  0.32487742  0.21631616  0.71131594     0.18100
C880        C  0.43124550  0.23813426  0.70630758    -0.25900
C881        C  0.45639585  0.23713884  0.69766876     0.36100
C882        C  0.45935231  0.24802587  0.67971787    -0.19900
C883        C  0.43731556  0.26029132  0.67105188    -0.25200
C884        C  0.41235524  0.26185691  0.67994355     0.27500
H885        H  0.42866153  0.22949455  0.71994237     0.13200
N886        N  0.47858496  0.22431227  0.70681525    -0.82500
H887        H  0.43967940  0.26885692  0.65737848     0.18100
N888        N  0.39016532  0.27545011  0.67132224    -0.81100
H889        H  0.47224685  0.21500010  0.71899425     0.33700
H890        H  0.49176527  0.23941028  0.71094486     0.38200
H891        H  0.39586722  0.28333449  0.65852510     0.33700
H892        H  0.37528240  0.26128592  0.66864535     0.30400
H893        H  0.35488186  0.19422188  0.69269693     0.33700
H894        H  0.37307827  0.21478670  0.67940882     0.30400
H895        H  0.33117690  0.30750371  0.73299988     0.38300
H896        H  0.36307211  0.30958771  0.74015532     0.33700
C897        C  0.01290131  0.34525865  0.96305483    -0.20000
C898        C  0.03069150  0.35435346  0.94916196     0.36200
C899        C  0.02997978  0.34261380  0.93153669    -0.26000
C900        C  0.01265646  0.32135523  0.92765787     0.02600
C901        C  0.99646668  0.31073186  0.94182012     0.27500
C902        C  0.99658484  0.32292660  0.95937274    -0.25100
N903        N  0.04943103  0.37547108  0.95300330    -0.82500
H904        H  0.04281505  0.35023626  0.92066625     0.13300
C905        C  0.01104913  0.31136404  0.90842676     0.02600
N906        N  0.98006561  0.28763874  0.93832637    -0.81100
H907        H  0.98321246  0.31554380  0.96999688     0.18100
C908        C  0.02945097  0.29210095  0.90228002    -0.25900
C909        C  0.02950078  0.28349711  0.88374419     0.36100
C910        C  0.01085573  0.29464752  0.87112920    -0.19900
C911        C  0.99230956  0.31376448  0.87744872    -0.25200
C912        C  0.99231735  0.32234585  0.89593005     0.27500
H913        H  0.04387187  0.28388316  0.91197776     0.13200
N914        N  0.04815389  0.26330723  0.87778309    -0.82500
H915        H  0.97808407  0.32248628  0.86782160     0.18100
N916        N  0.97397137  0.34280576  0.90193717    -0.81100
H917        H  0.06051803  0.25732847  0.88872991     0.33700
H918        H  0.03706004  0.24646352  0.87393827     0.38200
H919        H  0.96198211  0.34930104  0.89092963     0.33700
H920        H  0.96101804  0.33426426  0.91161844     0.30400
H921        H  0.96977874  0.28201543  0.95028607     0.33700
H922        H  0.96552222  0.29297451  0.92857538     0.30400
H923        H  0.06266270  0.36846771  0.96313487     0.38300
H924        H  0.06097447  0.37980962  0.94132096     0.33700
C925        C  0.05818640  0.26993954  0.81361611    -0.20000
C926        C  0.06024488  0.27189423  0.79407879     0.36200
C927        C  0.08557295  0.26989867  0.78565943    -0.26000
C928        C  0.10875484  0.26537969  0.79615385     0.02600
C929        C  0.10668461  0.26211373  0.81542911     0.27500
C930        C  0.08154304  0.26461185  0.82395244    -0.25100
N931        N  0.03695342  0.27667405  0.78281501    -0.82500
H932        H  0.08734053  0.27226272  0.77081785     0.13300
C933        C  0.13526089  0.26500411  0.78691454     0.02600
N934        N  0.13021826  0.25643767  0.82626955    -0.81100
H935        H  0.08028576  0.26250665  0.83882875     0.18100
C936        C  0.15463620  0.28374071  0.79225832    -0.25900
C937        C  0.18040694  0.28359063  0.78449242     0.36100
C938        C  0.18671169  0.26459932  0.77062743    -0.19900
C939        C  0.16692322  0.24633422  0.76494358    -0.25200
C940        C  0.14138723  0.24613169  0.77309894     0.27500
H941        H  0.14966783  0.29837550  0.80276323     0.13200
N942        N  0.19987459  0.30291753  0.79051236    -0.82500
H943        H  0.17159467  0.23163288  0.75442722     0.18100
N944        N  0.12182348  0.22655562  0.76766642    -0.81100
H945        H  0.19105304  0.31700626  0.79929356     0.33700
H946        H  0.21401481  0.29272738  0.79858159     0.38200
H947        H  0.12947829  0.21414029  0.75730166     0.33700
H948        H  0.11814248  0.21429169  0.77910845     0.30400
H949        H  0.12534482  0.25471045  0.84026513     0.33700
H950        H  0.13753691  0.23774395  0.82213309     0.30400
H951        H  0.02564003  0.25907836  0.78290530     0.38300
H952        H  0.04239551  0.27982856  0.76902944     0.33700
C953        C  0.24012232  0.83505655  0.77393527    -0.20000
C954        C  0.22450147  0.85750467  0.76855686     0.36200
C955        C  0.22822019  0.88227171  0.77750506    -0.26000
C956        C  0.24717505  0.88528693  0.79169328     0.02600
C957        C  0.26288310  0.86301476  0.79701203     0.27500
C958        C  0.25900236  0.83816892  0.78824693    -0.25100
N959        N  0.20465483  0.85511841  0.75423470    -0.82500
H960        H  0.21596107  0.89930150  0.77357462     0.13300
C961        C  0.25003698  0.91171734  0.80111044     0.02600
N962        N  0.28301382  0.86583292  0.81111735    -0.81100
H963        H  0.27125301  0.82124816  0.79239771     0.18100
C964        C  0.24632662  0.91327569  0.82028970    -0.25900
C965        C  0.24924348  0.93763773  0.82983450     0.36100
C966        C  0.25655215  0.96111991  0.82001325    -0.19900
C967        C  0.25930403  0.95966031  0.80068739    -0.25200
C968        C  0.25623874  0.93525164  0.79116891     0.27500
H969        H  0.24090590  0.89533143  0.82784531     0.13200
N970        N  0.24451458  0.93854301  0.84942648    -0.82500
H971        H  0.26473190  0.97746066  0.79298831     0.18100
N972        N  0.25998670  0.93416011  0.77148820    -0.81100
H973        H  0.23967704  0.91955170  0.85452180     0.33700
H974        H  0.22768576  0.95066388  0.85160575     0.38200
H975        H  0.26429472  0.95317691  0.76621714     0.33700
H976        H  0.27680532  0.92220520  0.76893965     0.30400
H977        H  0.29280903  0.84758909  0.81346192     0.33700
H978        H  0.29749498  0.87912129  0.80614775     0.30400
H979        H  0.18968165  0.84235859  0.75912470     0.38300
H980        H  0.19542965  0.87359549  0.75168420     0.33700
C981        C  0.30661971  0.77261485  0.72556462    -0.20000
C982        C  0.31033611  0.76825253  0.70643336     0.36200
C983        C  0.33606809  0.77105351  0.69873487    -0.26000
C984        C  0.35811279  0.77799514  0.70973767     0.02600
C985        C  0.35441124  0.78292282  0.72874638     0.27500
C986        C  0.32871983  0.77989414  0.73651211    -0.25100
N987        N  0.28815161  0.76031743  0.69498801    -0.82500
H988        H  0.33908764  0.76740837  0.68412177     0.13300
C989        C  0.38498343  0.77963893  0.70108120     0.02600
N990        N  0.37655207  0.79166635  0.73995024    -0.81100
H991        H  0.32583955  0.78356277  0.75113349     0.18100
C992        C  0.39230740  0.80301222  0.69160187    -0.25900
C993        C  0.41709913  0.80476709  0.68241150     0.36100
C994        C  0.43494731  0.78278188  0.68292954    -0.19900
C995        C  0.42772986  0.75954321  0.69261713    -0.25200
C996        C  0.40265813  0.75754656  0.70141015     0.27500
H997        H  0.37849788  0.81979281  0.69123422     0.13200
N998        N  0.42428252  0.82877244  0.67261109    -0.82500
H999        H  0.44132154  0.74257981  0.69275657     0.18100
N1000       N  0.39454622  0.73280209  0.70990467    -0.81100
H1001       H  0.40891288  0.84298751  0.67347951     0.33700
H1002       H  0.44095426  0.83702992  0.67925126     0.38200
H1003       H  0.40949514  0.71823697  0.70839066     0.33700
H1004       H  0.39249548  0.73607083  0.72406490     0.30400
H1005       H  0.37029148  0.79505153  0.75354855     0.33700
H1006       H  0.39061408  0.77618419  0.74055026     0.30400
H1007       H  0.28189079  0.74142374  0.69947460     0.38300
H1008       H  0.29425409  0.75807171  0.68125308     0.33700
C1009       C  0.22799679  0.68979082  0.72502154    -0.20000
C1010       C  0.22733160  0.68594993  0.70563661     0.36200
C1011       C  0.22542670  0.65979802  0.69850523    -0.26000
C1012       C  0.22378195  0.63741848  0.71021853     0.02600
C1013       C  0.22433125  0.64119606  0.72951380     0.27500
C1014       C  0.22662911  0.66724988  0.73668330    -0.25100
N1015       N  0.22950233  0.70835284  0.69321926    -0.82500
H1016       H  0.22534040  0.65678513  0.68367515     0.13300
C1017       C  0.22191353  0.61016861  0.70199158     0.02600
N1018       N  0.22233603  0.61856937  0.74174959    -0.81100
H1019       H  0.22695968  0.66998274  0.75153469     0.18100
C1020       C  0.24172639  0.59101179  0.70604544    -0.25900
C1021       C  0.24139901  0.56550386  0.69777309     0.36100
C1022       C  0.22112231  0.55929095  0.68480944    -0.19900
C1023       C  0.20108225  0.57834576  0.68101168    -0.25200
C1024       C  0.20102176  0.60352204  0.68968239     0.27500
H1025       H  0.25778556  0.59618306  0.71547845     0.13200
N1026       N  0.26230929  0.54650830  0.70182036    -0.82500
H1027       H  0.18531004  0.57349767  0.67126466     0.18100
N1028       N  0.17984814  0.62240382  0.68605279    -0.81100
H1029       H  0.27673158  0.55504157  0.71048818     0.33700
H1030       H  0.25372916  0.53087328  0.70937438     0.38200
H1031       H  0.16603690  0.61446148  0.67667112     0.33700
H1032       H  0.16949062  0.62541308  0.69843921     0.30400
H1033       H  0.22319286  0.62473118  0.75554397     0.33700
H1034       H  0.20344041  0.61000992  0.73979340     0.30400
H1035       H  0.21148710  0.71901845  0.69388936     0.38300
H1036       H  0.23117005  0.70176887  0.67955034     0.33700
C1037       C  0.16111636  0.75088989  0.77209783    -0.20000
C1038       C  0.13998581  0.76951435  0.76967254     0.36200
C1039       C  0.11490896  0.76457108  0.77787570    -0.26000
C1040       C  0.11053677  0.74157757  0.78855810     0.02600
C1041       C  0.13143221  0.72281941  0.79090592     0.27500
C1042       C  0.15655278  0.72769132  0.78268569    -0.25100
N1043       N  0.14426855  0.79377572  0.75937995    -0.82500
H1044       H  0.09880944  0.77900919  0.77629387     0.13300
C1045       C  0.08445702  0.73837678  0.79815020     0.02600
N1046       N  0.12698682  0.69889147  0.80154233    -0.81100
H1047       H  0.17260272  0.71324995  0.78446533     0.18100
C1048       C  0.06340489  0.72470243  0.78946885    -0.25900
C1049       C  0.03814952  0.72219383  0.79805520     0.36100
C1050       C  0.03424135  0.73297582  0.81594066    -0.19900
C1051       C  0.05548872  0.74659276  0.82454120    -0.25200
C1052       C  0.08038023  0.74974634  0.81571815     0.27500
H1053       H  0.06663996  0.71624198  0.77586983     0.13200
N1054       N  0.01686135  0.70808452  0.78889385    -0.82500
H1055       H  0.05251675  0.75516634  0.83813687     0.18100
N1056       N  0.10142444  0.76489219  0.82435527    -0.81100
H1057       H  0.02370461  0.69972301  0.77652736     0.33700
H1058       H  0.00234133  0.72221766  0.78513364     0.38200
H1059       H  0.09504721  0.77246544  0.83707247     0.33700
H1060       H  0.11726968  0.75178149  0.82716915     0.30400
H1061       H  0.14426671  0.68696656  0.80172169     0.33700
H1062       H  0.12342632  0.70457458  0.81520760     0.30400
H1063       H  0.15831259  0.80516312  0.76667714     0.38300
H1064       H  0.12671073  0.80519073  0.75880198     0.33700
C1065       C  0.80661424  0.74847438  0.77485893    -0.20000
C1066       C  0.82794047  0.76537593  0.76929805     0.36200
C1067       C  0.85340642  0.76225658  0.77746792    -0.26000
C1068       C  0.85794512  0.74294306  0.79121502     0.02600
C1069       C  0.83676077  0.72620237  0.79683910     0.27500
C1070       C  0.81134782  0.72920767  0.78868902    -0.25100
N1071       N  0.82366104  0.78592387  0.75565229    -0.82500
H1072       H  0.86971457  0.77526395  0.77335694     0.13300
C1073       C  0.88475865  0.74081112  0.80006029     0.02600
N1074       N  0.84126460  0.70603441  0.81071877    -0.81100
H1075       H  0.79525149  0.71607492  0.79298366     0.18100
C1076       C  0.88714597  0.74607678  0.81899267    -0.25900
C1077       C  0.91186413  0.74352982  0.82816965     0.36100
C1078       C  0.93486164  0.73524990  0.81816622    -0.19900
C1079       C  0.93244247  0.73046995  0.79907101    -0.25200
C1080       C  0.90760514  0.73304326  0.78994687     0.27500
H1081       H  0.86954282  0.75232471  0.82663466     0.13200
N1082       N  0.91361542  0.74965670  0.84754947    -0.82500
H1083       H  0.94984407  0.72407748  0.79129041     0.18100
N1084       N  0.90535972  0.72734361  0.77053862    -0.81100
H1085       H  0.89482391  0.75491211  0.85282724     0.33700
H1086       H  0.92578945  0.76654832  0.84893029     0.38200
H1087       H  0.92399464  0.72187484  0.76510527     0.33700
H1088       H  0.89285432  0.71069930  0.76908836     0.30400
H1089       H  0.82364542  0.69542209  0.81336753     0.33700
H1090       H  0.85502509  0.69225982  0.80536352     0.30400
H1091       H  0.81033327  0.79989762  0.76128138     0.38300
H1092       H  0.84145550  0.79623028  0.75296539     0.33700
C1093       C  0.74584088  0.67980011  0.72868445    -0.20000
C1094       C  0.72974542  0.65721538  0.73264594     0.36200
C1095       C  0.73506340  0.63273870  0.72373583    -0.26000
C1096       C  0.75588211  0.63033491  0.71082388     0.02600
C1097       C  0.77243221  0.65256972  0.70722555     0.27500
C1098       C  0.76715686  0.67708317  0.71609301    -0.25100
N1099       N  0.70754781  0.65933386  0.74521348    -0.82500
H1100       H  0.72234584  0.61560086  0.72641546     0.13300
C1101       C  0.75913458  0.60474455  0.70055636     0.02600
N1102       N  0.79451119  0.65012134  0.69458746    -0.81100
H1103       H  0.77986098  0.69415340  0.71320183     0.18100
C1104       C  0.75541661  0.60445978  0.68132522    -0.25900
C1105       C  0.75635522  0.58036037  0.67122916     0.36100
C1106       C  0.76141459  0.55592501  0.68060021    -0.19900
C1107       C  0.76534717  0.55647128  0.69989036    -0.25200
C1108       C  0.76445713  0.58055194  0.70989726     0.27500
H1109       H  0.75108691  0.62311254  0.67423217     0.13200
N1110       N  0.75166786  0.58069460  0.65162189    -0.82500
H1111       H  0.76962188  0.53804360  0.70725516     0.18100
N1112       N  0.76916386  0.58059667  0.72950752    -0.81100
H1113       H  0.74873370  0.60029609  0.64689948     0.33700
H1114       H  0.73375476  0.57046055  0.64916293     0.38200
H1115       H  0.77269813  0.56114232  0.73432708     0.33700
H1116       H  0.78675299  0.59142416  0.73190550     0.30400
H1117       H  0.80472534  0.66831011  0.69342616     0.33700
H1118       H  0.80808347  0.63636491  0.70026031     0.30400
H1119       H  0.69346434  0.67228426  0.73923507     0.38300
H1120       H  0.69803216  0.64084326  0.74675870     0.33700
C1121       C  0.65928624  0.75633647  0.72835551    -0.20000
C1122       C  0.63551279  0.75968671  0.73876113     0.36200
C1123       C  0.61066880  0.76173732  0.72953881    -0.26000
C1124       C  0.60907739  0.76073950  0.71017214     0.02600
C1125       C  0.63273611  0.75700775  0.69982334     0.27500
C1126       C  0.65752207  0.75502457  0.70899262    -0.25100
N1127       N  0.63669175  0.76183746  0.75855773    -0.82500
H1128       H  0.59251618  0.76493352  0.73744992     0.13300
C1129       C  0.58280161  0.76509726  0.70079299     0.02600
N1130       N  0.63145849  0.75523444  0.68000749    -0.81100
H1131       H  0.67560854  0.75223843  0.70093882     0.18100
C1132       C  0.58020142  0.78643188  0.68826929    -0.25900
C1133       C  0.55592134  0.79143647  0.67901154     0.36100
C1134       C  0.53357829  0.77478584  0.68238891    -0.19900
C1135       C  0.53598941  0.75369135  0.69516698    -0.25200
C1136       C  0.56049659  0.74846439  0.70423704     0.27500
H1137       H  0.59721538  0.79942378  0.68584064     0.13200
N1138       N  0.55374973  0.81370742  0.66645953    -0.82500
H1139       H  0.51889630  0.74085780  0.69771935     0.18100
N1140       N  0.56297660  0.72610712  0.71666873    -0.81100
H1141       H  0.57201215  0.82382058  0.66543382     0.33700
H1142       H  0.54000924  0.82727009  0.67208797     0.38200
H1143       H  0.54479061  0.71583052  0.71765794     0.33700
H1144       H  0.57680116  0.71273256  0.71092384     0.30400
H1145       H  0.65061304  0.75262352  0.67443419     0.33700
H1146       H  0.62053474  0.73804497  0.67671071     0.30400
H1147       H  0.64709430  0.77941879  0.76171674     0.38300
H1148       H  0.61745709  0.76405122  0.76407995     0.33700
C1149       C  0.82777999  0.26680950  0.77577293    -0.20000
C1150       C  0.83244193  0.26399012  0.79496166     0.36200
C1151       C  0.85858796  0.26710239  0.80192801    -0.26000
C1152       C  0.88023359  0.27264430  0.79015965     0.02600
C1153       C  0.87569829  0.27500464  0.77098329     0.27500
C1154       C  0.84956588  0.27196283  0.76399675    -0.25100
N1155       N  0.81082515  0.25730811  0.80724682    -0.82500
H1156       H  0.86223936  0.26473414  0.81661046     0.13300
C1157       C  0.90756691  0.27538954  0.79816717     0.02600
N1158       N  0.89760510  0.28072625  0.75871376    -0.81100
H1159       H  0.84612947  0.27404262  0.74927263     0.18100
C1160       C  0.92813577  0.25821457  0.79224811    -0.25900
C1161       C  0.95381749  0.25913326  0.80029066     0.36100
C1162       C  0.95905223  0.27778303  0.81453203    -0.19900
C1163       C  0.93851015  0.29520611  0.82022007    -0.25200
C1164       C  0.91292644  0.29433969  0.81211180     0.27500
H1165       H  0.92388171  0.24350212  0.78165653     0.13200
N1166       N  0.97421203  0.24061506  0.79445077    -0.82500
H1167       H  0.94247870  0.30972414  0.83099192     0.18100
N1168       N  0.89234246  0.31265506  0.81794940    -0.81100
H1169       H  0.96716134  0.22848091  0.78373578     0.33700
H1170       H  0.97837341  0.22788834  0.80558635     0.38200
H1171       H  0.89946302  0.32522934  0.82839311     0.33700
H1172       H  0.88763950  0.32494739  0.80668132     0.30400
H1173       H  0.89093830  0.28164125  0.74501590     0.33700
H1174       H  0.90482384  0.29976553  0.76200342     0.30400
H1175       H  0.80415377  0.23814044  0.80372781     0.38300
H1176       H  0.81765760  0.25612049  0.82090666     0.33700
C1177       C  0.75417889  0.33273926  0.73130326    -0.20000
C1178       C  0.75036399  0.35678004  0.74136095     0.36200
C1179       C  0.75043308  0.38150676  0.73189770    -0.26000
C1180       C  0.75398845  0.38271209  0.71265945     0.02600
C1181       C  0.75638245  0.35870647  0.70257291     0.27500
C1182       C  0.75671709  0.33414980  0.71197201    -0.25100
N1183       N  0.74692380  0.35619510  0.76108046    -0.82500
H1184       H  0.74855032  0.39998063  0.73962518     0.13300
C1185       C  0.75687587  0.40905638  0.70321160     0.02600
N1186       N  0.75852691  0.35939463  0.68275384    -0.81100
H1187       H  0.75881476  0.31591034  0.70401583     0.18100
C1188       C  0.77987185  0.41367064  0.69250380    -0.25900
C1189       C  0.78315915  0.43758550  0.68255718     0.36100
C1190       C  0.76315887  0.45753179  0.68350773    -0.19900
C1191       C  0.74067097  0.45348853  0.69481128    -0.25200
C1192       C  0.73710523  0.42925173  0.70448046     0.27500
H1193       H  0.79533443  0.39841785  0.69187253     0.13200
N1194       N  0.80687573  0.44182276  0.67168037    -0.82500
H1195       H  0.72540233  0.46892155  0.69556490     0.18100
N1196       N  0.71325575  0.42482580  0.71517224    -0.81100
H1197       H  0.81953251  0.42511201  0.67235780     0.33700
H1198       H  0.81739546  0.45776302  0.67757311     0.38200
H1199       H  0.70076710  0.44168154  0.71468718     0.33700
H1200       H  0.70266645  0.40920181  0.70895570     0.30400
H1201       H  0.76034689  0.34003689  0.67740146     0.33700
H1202       H  0.74059261  0.36726436  0.67755982     0.30400
H1203       H  0.76497444  0.34960759  0.76689435     0.38300
H1204       H  0.74356042  0.37548722  0.76618862     0.33700
C1205       C  0.55746121  0.25075724  0.67980773    -0.20000
C1206       C  0.58117284  0.26047175  0.67159934     0.36200
C1207       C  0.60504758  0.26085115  0.68198975    -0.26000
C1208       C  0.60560060  0.25192917  0.70041902     0.02600
C1209       C  0.58170622  0.24315114  0.70881275     0.27500
C1210       C  0.55791287  0.24277569  0.69845265    -0.25100
N1211       N  0.58088171  0.27014071  0.65287531    -0.82500
H1212       H  0.62336032  0.26812167  0.67571772     0.13300
C1213       C  0.63142771  0.25145201  0.71066142     0.02600
N1214       N  0.58182947  0.23406249  0.72768663    -0.81100
H1215       H  0.53980313  0.23527635  0.70483173     0.18100
C1216       C  0.63403361  0.26617552  0.72703956    -0.25900
C1217       C  0.65839626  0.26679672  0.73684107     0.36100
C1218       C  0.68072756  0.25214335  0.73012516    -0.19900
C1219       C  0.67776896  0.23698738  0.71386992    -0.25200
C1220       C  0.65336635  0.23637781  0.70415678     0.27500
H1221       H  0.61709412  0.27775329  0.73196246     0.13200
N1222       N  0.66055128  0.28279714  0.75327991    -0.82500
H1223       H  0.69458663  0.22551332  0.70866304     0.18100
N1224       N  0.65069776  0.22041650  0.68773511    -0.81100
H1225       H  0.64205997  0.29137028  0.75664154     0.33700
H1226       H  0.67346218  0.29870491  0.75032654     0.38200
H1227       H  0.66869478  0.21058654  0.68473812     0.33700
H1228       H  0.63653360  0.20551725  0.69045479     0.30400
H1229       H  0.56256569  0.22844817  0.73181896     0.33700
H1230       H  0.59372167  0.21681783  0.72834975     0.30400
H1231       H  0.56839585  0.28702102  0.65245746     0.38300
H1232       H  0.59995107  0.27659366  0.64895265     0.33700
C1233       C  0.74938673  0.18341909  0.77381102    -0.20000
C1234       C  0.72758938  0.17605773  0.78517117     0.36200
C1235       C  0.72662193  0.15015804  0.79267498    -0.26000
C1236       C  0.74667471  0.13130717  0.78885340     0.02600
C1237       C  0.76809636  0.13825095  0.77712401     0.27500
C1238       C  0.76917915  0.16427098  0.76960333    -0.25100
N1239       N  0.70626100  0.19474395  0.78879007    -0.82500
H1240       H  0.71003131  0.14450783  0.80150876     0.13300
C1241       C  0.74482540  0.10454470  0.79760970     0.02600
N1242       N  0.78876580  0.11900639  0.77315562    -0.81100
H1243       H  0.78583408  0.16981718  0.76080391     0.18100
C1244       C  0.73862645  0.08214710  0.78680684    -0.25900
C1245       C  0.73400011  0.05693542  0.79497340     0.36100
C1246       C  0.73568976  0.05416857  0.81447720    -0.19900
C1247       C  0.74274343  0.07671768  0.82508883    -0.25200
C1248       C  0.74722193  0.10178341  0.81688416     0.27500
H1249       H  0.73667314  0.08455712  0.77197587     0.13200
N1250       N  0.72652470  0.03465275  0.78353687    -0.82500
H1251       H  0.74444843  0.07496876  0.83996588     0.18100
N1252       N  0.75370456  0.12466262  0.82806593    -0.81100
H1253       H  0.72378918  0.04080223  0.76983572     0.33700
H1254       H  0.74272454  0.02136813  0.78338795     0.38200
H1255       H  0.75438516  0.11939672  0.84206574     0.33700
H1256       H  0.77299228  0.13085145  0.82446336     0.30400
H1257       H  0.80308379  0.12726710  0.76427376     0.33700
H1258       H  0.79866352  0.11467169  0.78555293     0.30400
H1259       H  0.69666766  0.19874141  0.77622168     0.38300
H1260       H  0.69185560  0.18619683  0.79745945     0.33700
C1261       C  0.72266876  0.82516576  0.77503899    -0.20000
C1262       C  0.72483900  0.82905320  0.79434602     0.36200
C1263       C  0.72276559  0.85509553  0.80161984    -0.26000
C1264       C  0.71874163  0.87738372  0.79007844     0.02600
C1265       C  0.71625429  0.87350523  0.77084703     0.27500
C1266       C  0.71841236  0.84750424  0.76353649    -0.25100
N1267       N  0.73000224  0.80676131  0.80645761    -0.82500
H1268       H  0.72504855  0.85815510  0.81636232     0.13300
C1269       C  0.71829218  0.90468990  0.79833507     0.02600
N1270       N  0.71148069  0.89598723  0.75883476    -0.81100
H1271       H  0.71660268  0.84464772  0.74874526     0.18100
C1272       C  0.73704358  0.92381324  0.79244850    -0.25900
C1273       C  0.73849159  0.94924367  0.80076231     0.36100
C1274       C  0.72062005  0.95577466  0.81524548    -0.19900
C1275       C  0.70171350  0.93665765  0.82097382    -0.25200
C1276       C  0.70022088  0.91132218  0.81259332     0.27500
H1277       H  0.75114535  0.91856101  0.78166106     0.13200
N1278       N  0.75858992  0.96802595  0.79492858    -0.82500
H1279       H  0.68780772  0.94160210  0.83194865     0.18100
N1280       N  0.68035833  0.89230554  0.81845219    -0.81100
H1281       H  0.76990082  0.96018750  0.78403921     0.33700
H1282       H  0.77183304  0.97074104  0.80598347     0.38200
H1283       H  0.66869449  0.90020915  0.82913426     0.33700
H1284       H  0.66741937  0.88905775  0.80729711     0.30400
H1285       H  0.71028261  0.88976813  0.74506376     0.33700
H1286       H  0.69273055  0.90397303  0.76221596     0.30400
H1287       H  0.74907531  0.79934937  0.80331276     0.38300
H1288       H  0.73072663  0.81305163  0.82023521     0.33700
C1289       C  0.20830245  0.51139220  0.62603568    -0.20000
C1290       C  0.18817829  0.52846617  0.61883426     0.36200
C1291       C  0.18136962  0.52681966  0.60002368    -0.26000
C1292       C  0.19416655  0.50853662  0.58830848     0.02600
C1293       C  0.21504053  0.49229536  0.59520647     0.27500
C1294       C  0.22174078  0.49371514  0.61408033    -0.25100
N1295       N  0.17402092  0.54667727  0.63072701    -0.82500
H1296       H  0.16532753  0.53920477  0.59455891     0.13300
C1297       C  0.18352555  0.50516882  0.56936727     0.02600
N1298       N  0.22953625  0.47477646  0.58300964    -0.81100
H1299       H  0.23750805  0.48095503  0.61950406     0.18100
C1300       C  0.19102638  0.52313122  0.55539111    -0.25900
C1301       C  0.17829161  0.52272552  0.53798944     0.36100
C1302       C  0.15809010  0.50352090  0.53449014    -0.19900
C1303       C  0.15129277  0.48513541  0.54842311    -0.25200
C1304       C  0.16348894  0.48600701  0.56588285     0.27500
H1305       H  0.20606731  0.53815970  0.55834643     0.13200
N1306       N  0.18499097  0.54238827  0.52422171    -0.82500
H1307       H  0.13587177  0.47036861  0.54579003     0.18100
N1308       N  0.15458583  0.46847663  0.58041989    -0.81100
H1309       H  0.20016545  0.55501886  0.52901479     0.33700
H1310       H  0.16805702  0.55442318  0.52212397     0.38200
H1311       H  0.13890339  0.45632405  0.57579998     0.33700
H1312       H  0.17038478  0.45562759  0.58380091     0.30400
H1313       H  0.24466398  0.46461931  0.59023510     0.33700
H1314       H  0.21634962  0.46018359  0.57818021     0.30400
H1315       H  0.16305634  0.53522859  0.64015626     0.38300
H1316       H  0.16007277  0.55794577  0.62318722     0.33700
C1317       C  0.15383049  0.50180814  0.46483441    -0.20000
C1318       C  0.14464160  0.51817308  0.45018490     0.36200
C1319       C  0.15654522  0.51616945  0.43272278    -0.26000
C1320       C  0.17791086  0.49854451  0.42964732     0.02600
C1321       C  0.18799680  0.48290662  0.44432487     0.27500
C1322       C  0.17573181  0.48457448  0.46179657    -0.25100
N1323       N  0.12364408  0.53732864  0.45308631    -0.82500
H1324       H  0.14914529  0.52855261  0.42148951     0.13300
C1325       C  0.18939668  0.49699720  0.41088704     0.02600
N1326       N  0.21081013  0.46576048  0.44148650    -0.81100
H1327       H  0.18298316  0.47204887  0.47298566     0.18100
C1328       C  0.20912824  0.51542529  0.40564706    -0.25900
C1329       C  0.21869150  0.51628186  0.38737916     0.36100
C1330       C  0.20811465  0.49837324  0.37417381    -0.19900
C1331       C  0.18891885  0.47941324  0.37965356    -0.25200
C1332       C  0.17923994  0.47872206  0.39785702     0.27500
H1333       H  0.21674800  0.52942142  0.41579824     0.13200
N1334       N  0.23911843  0.53512523  0.38223170    -0.82500
H1335       H  0.18078384  0.46565873  0.36953518     0.18100
N1336       N  0.15838572  0.46032249  0.40298992    -0.81100
H1337       H  0.24461284  0.54688611  0.39355616     0.33700
H1338       H  0.25615308  0.52416776  0.37848126     0.38200
H1339       H  0.15262746  0.44871559  0.39163431     0.33700
H1340       H  0.16627827  0.44705539  0.41276352     0.30400
H1341       H  0.21604379  0.45603182  0.45379538     0.33700
H1342       H  0.20527367  0.45082078  0.43216037     0.30400
H1343       H  0.13105076  0.55628400  0.44985557     0.38300
H1344       H  0.10803470  0.53302693  0.44384894     0.33700
C1345       C  0.50738400  0.16246393  0.53443609    -0.20000
C1346       C  0.49265213  0.18625969  0.53768504     0.36200
C1347       C  0.49454736  0.19901167  0.55499246    -0.26000
C1348       C  0.51027723  0.18814282  0.56922042     0.02600
C1349       C  0.52503972  0.16453765  0.56604784     0.27500
C1350       C  0.52359788  0.15203683  0.54867543    -0.25100
N1351       N  0.47510179  0.19686499  0.52368014    -0.82500
H1352       H  0.48302987  0.21702689  0.55763447     0.13300
C1353       C  0.50984622  0.20067491  0.58778295     0.02600
N1354       N  0.54105418  0.15314644  0.58062238    -0.81100
H1355       H  0.53505359  0.13391754  0.54626874     0.18100
C1356       C  0.49368427  0.18935446  0.60153296    -0.25900
C1357       C  0.49298192  0.20012994  0.61945966     0.36100
C1358       C  0.50871613  0.22283748  0.62367331    -0.19900
C1359       C  0.52505651  0.23405652  0.60990602    -0.25200
C1360       C  0.52567574  0.22322918  0.59193113     0.27500
H1361       H  0.48176503  0.17186324  0.59826695     0.13200
N1362       N  0.47687011  0.18769109  0.63351732    -0.82500
H1363       H  0.53720127  0.25138846  0.61316947     0.18100
N1364       N  0.54227086  0.23496419  0.57787765    -0.81100
H1365       H  0.46650562  0.17126665  0.62814572     0.33700
H1366       H  0.48987407  0.18014432  0.64362538     0.38200
H1367       H  0.55249866  0.25157644  0.58310820     0.33700
H1368       H  0.55685170  0.22084302  0.57428927     0.30400
H1369       H  0.55041825  0.13556684  0.57615829     0.33700
H1370       H  0.55632839  0.16675384  0.58367848     0.30400
H1371       H  0.45988946  0.18284199  0.52148140     0.38300
H1372       H  0.46576060  0.21438635  0.52827266     0.33700
C1373       C  0.50669533  0.15969126  0.46461225    -0.20000
C1374       C  0.52307589  0.14921106  0.45039281     0.36200
C1375       C  0.52287698  0.16139290  0.43288297    -0.26000
C1376       C  0.50670934  0.18378597  0.42924361     0.02600
C1377       C  0.49066233  0.19454194  0.44345722     0.27500
C1378       C  0.49092177  0.18246064  0.46104502    -0.25100
N1379       N  0.53971273  0.12613914  0.45375030    -0.82500
H1380       H  0.53501004  0.15308695  0.42186932     0.13300
C1381       C  0.50582120  0.19471660  0.41015955     0.02600
N1382       N  0.47395487  0.21746535  0.43987655    -0.81100
H1383       H  0.47820099  0.19037186  0.47187653     0.18100
C1384       C  0.48182356  0.19329203  0.40016075    -0.25900
C1385       C  0.48056993  0.20091284  0.38145894     0.36100
C1386       C  0.50391258  0.21082558  0.37257524    -0.19900
C1387       C  0.52780357  0.21282213  0.38291638    -0.25200
C1388       C  0.52899524  0.20480178  0.40154298     0.27500
H1389       H  0.46416858  0.18518907  0.40683640     0.13200
N1390       N  0.45582597  0.19780447  0.37148007    -0.82500
H1391       H  0.54578237  0.22052862  0.37645549     0.18100
N1392       N  0.55368188  0.20666555  0.41174135    -0.81100
H1393       H  0.44051070  0.19135880  0.38026451     0.33700
H1394       H  0.45866933  0.18248720  0.36183822     0.38200
H1395       H  0.56894387  0.21435094  0.40340527     0.33700
H1396       H  0.55073555  0.22045306  0.42241824     0.30400
H1397       H  0.46318993  0.22273771  0.45171756     0.33700
H1398       H  0.48654800  0.23358206  0.43684019     0.30400
H1399       H  0.55399667  0.13145313  0.46365143     0.38300
H1400       H  0.55023420  0.12080708  0.44181738     0.33700
C1401       C  0.48240129  0.93382678  0.49828548    -0.20000
C1402       C  0.46741394  0.94969085  0.48572461     0.36200
C1403       C  0.46973548  0.97774681  0.48634689    -0.26000
C1404       C  0.48602489  0.99014559  0.49957173     0.02600
C1405       C  0.50023653  0.97454597  0.51248447     0.27500
C1406       C  0.49854536  0.94655496  0.51158416    -0.25100
N1407       N  0.44963358  0.93735470  0.47261830    -0.82500
H1408       H  0.45870931  0.99004551  0.47658187     0.13300
C1409       C  0.48873042  0.01954291  0.49951368     0.02600
N1410       N  0.51614954  0.98724632  0.52654219    -0.81100
H1411       H  0.51021350  0.93460587  0.52118980     0.18100
C1412       C  0.47157733  0.03505657  0.51047955    -0.25900
C1413       C  0.47416791  0.06308387  0.51109531     0.36100
C1414       C  0.49453647  0.07559280  0.50066074    -0.19900
C1415       C  0.51160855  0.05987511  0.48966769    -0.25200
C1416       C  0.50890980  0.03194640  0.48899719     0.27500
H1417       H  0.45611847  0.02523168  0.51850528     0.13200
N1418       N  0.45600426  0.07886995  0.52200482    -0.82500
H1419       H  0.52726128  0.06946561  0.48168213     0.18100
N1420       N  0.52640436  0.01611216  0.47759298    -0.81100
H1421       H  0.44226046  0.06656536  0.52883849     0.33700
H1422       H  0.44492102  0.09090897  0.51294798     0.38200
H1423       H  0.53990975  0.02837361  0.47051534     0.33700
H1424       H  0.53789007  0.00387520  0.48629053     0.30400
H1425       H  0.52489491  0.97295105  0.53520497     0.33700
H1426       H  0.53190659  0.99729473  0.52000811     0.30400
H1427       H  0.43455867  0.92766293  0.48007989     0.38300
H1428       H  0.44016332  0.95184734  0.46443862     0.33700
C1429       C  0.48390359  0.84716757  0.53256939    -0.20000
C1430       C  0.46634829  0.82609097  0.53730060     0.36200
C1431       C  0.46739716  0.81514748  0.55525169    -0.26000
C1432       C  0.48559816  0.82490112  0.56842968     0.02600
C1433       C  0.50371057  0.84527014  0.56349180     0.27500
C1434       C  0.50273814  0.85610410  0.54561142    -0.25100
N1435       N  0.44710037  0.81643675  0.52410839    -0.82500
H1436       H  0.45359709  0.79939748  0.55915462     0.13300
C1437       C  0.48456329  0.81489003  0.58771316     0.02600
N1438       N  0.52260130  0.85528117  0.57681060    -0.81100
H1439       H  0.51643824  0.87204557  0.54190086     0.18100
C1440       C  0.50609620  0.80002645  0.59479984    -0.25900
C1441       C  0.50646861  0.79153004  0.61335619     0.36100
C1442       C  0.48488739  0.79845405  0.62518876    -0.19900
C1443       C  0.46317267  0.81307382  0.61784902    -0.25200
C1444       C  0.46289716  0.82150114  0.59929984     0.27500
H1445       H  0.52269186  0.79507286  0.58576887     0.13200
N1446       N  0.52857846  0.77574105  0.62007620    -0.82500
H1447       H  0.44659801  0.81859980  0.62672637     0.18100
N1448       N  0.44098028  0.83726418  0.59224908    -0.81100
H1449       H  0.54289302  0.77293605  0.60972422     0.33700
H1450       H  0.52115018  0.75674222  0.62335534     0.38200
H1451       H  0.42657584  0.84038217  0.60251408     0.33700
H1452       H  0.44851880  0.85613271  0.58876578     0.30400
H1453       H  0.53462821  0.87014629  0.57092989     0.33700
H1454       H  0.51170301  0.86446885  0.58738618     0.30400
H1455       H  0.43366823  0.83203222  0.52132910     0.38300
H1456       H  0.43586327  0.80078367  0.52975975     0.33700
C1457       C  0.50424843  0.79573854  0.37256316    -0.20000
C1458       C  0.52225834  0.81455229  0.38031950     0.36200
C1459       C  0.51856395  0.82302426  0.39864213    -0.26000
C1460       C  0.49741866  0.81318197  0.40936264     0.02600
C1461       C  0.47966201  0.79424823  0.40183924     0.27500
C1462       C  0.48322306  0.78572504  0.38351384    -0.25100
N1463       N  0.54341519  0.82602696  0.36941776    -0.82500
H1464       H  0.53195678  0.83780108  0.40453309     0.13300
C1465       C  0.49346151  0.82391638  0.42819172     0.02600
N1466       N  0.45797256  0.78399338  0.41281664    -0.81100
H1467       H  0.46939331  0.77127829  0.37772527     0.18100
C1468       C  0.47089013  0.83983098  0.43176573    -0.25900
C1469       C  0.46730235  0.85178248  0.44908537     0.36100
C1470       C  0.48652106  0.84773219  0.46310028    -0.19900
C1471       C  0.50874353  0.83119181  0.45970107    -0.25200
C1472       C  0.51244702  0.81925817  0.44229909     0.27500
H1473       H  0.45625175  0.84338085  0.42094250     0.13200
N1474       N  0.44407540  0.86796382  0.45246432    -0.82500
H1475       H  0.52352891  0.82815829  0.47049630     0.18100
N1476       N  0.53545790  0.80266181  0.43879219    -0.81100
H1477       H  0.44394467  0.88364960  0.44284898     0.33700
H1478       H  0.42710092  0.85622309  0.45013288     0.38200
H1479       H  0.54756016  0.80136488  0.45057827     0.33700
H1480       H  0.52854549  0.78330292  0.43611225     0.30400
H1481       H  0.44659165  0.77033003  0.40521581     0.33700
H1482       H  0.46636134  0.77333830  0.42386498     0.30400
H1483       H  0.55811704  0.81129189  0.36777350     0.38300
H1484       H  0.55267824  0.84168049  0.37654413     0.33700
C1485       C  0.92686637  0.49574521  0.50230798    -0.20000
C1486       C  0.94203340  0.47607364  0.49295448     0.36200
C1487       C  0.97016668  0.47706312  0.49361438    -0.26000
C1488       C  0.98344967  0.49701273  0.50367293     0.02600
C1489       C  0.96835988  0.51627243  0.51343216     0.27500
C1490       C  0.94018560  0.51550358  0.51260264    -0.25100
N1491       N  0.92877734  0.45502005  0.48298361    -0.82500
H1492       H  0.98185140  0.46227625  0.48618221     0.13300
C1493       C  0.01319523  0.49779222  0.50351616     0.02600
N1494       N  0.98174616  0.53645433  0.52414956    -0.81100
H1495       H  0.92854968  0.53051272  0.51985657     0.18100
C1496       C  0.02614516  0.52008599  0.49581821    -0.25900
C1497       C  0.05425168  0.52135361  0.49497571     0.36100
C1498       C  0.06964151  0.49999540  0.50212103    -0.19900
C1499       C  0.05676010  0.47775458  0.50992656    -0.25200
C1500       C  0.02861226  0.47631850  0.51054560     0.27500
H1501       H  0.01422423  0.53640830  0.49027747     0.13200
N1502       N  0.06728251  0.54419657  0.48689394    -0.82500
H1503       H  0.06873032  0.46136087  0.51531637     0.18100
N1504       N  0.01559401  0.45317587  0.51821198    -0.81100
H1505       H  0.05312560  0.55805240  0.48215019     0.33700
H1506       H  0.07819234  0.55369909  0.49734367     0.38200
H1507       H  0.02978179  0.43906660  0.52259900     0.33700
H1508       H  0.00516009  0.45932645  0.52997421     0.30400
H1509       H  0.96780277  0.54913060  0.53044401     0.33700
H1510       H  0.99210162  0.52672455  0.53482231     0.30400
H1511       H  0.91815256  0.44353748  0.49258151     0.38300
H1512       H  0.94279591  0.44221541  0.47686789     0.33700
C1513       C  0.83784969  0.49760276  0.53425260    -0.20000
C1514       C  0.81712504  0.47938696  0.53866971     0.36200
C1515       C  0.80389077  0.48156724  0.55581448    -0.26000
C1516       C  0.81113679  0.50138732  0.56858386     0.02600
C1517       C  0.83144109  0.51980315  0.56407156     0.27500
C1518       C  0.84446684  0.51781199  0.54694425    -0.25100
N1519       N  0.81023361  0.45824999  0.52607510    -0.82500
H1520       H  0.78851458  0.46724209  0.55952162     0.13300
C1521       C  0.79973381  0.50094400  0.58747381     0.02600
N1522       N  0.83948117  0.53979098  0.57723527    -0.81100
H1523       H  0.86016602  0.53194829  0.54354441     0.18100
C1524       C  0.81274221  0.48551626  0.60095548    -0.25900
C1525       C  0.80443914  0.48617127  0.61944183     0.36100
C1526       C  0.78279216  0.50268314  0.62469819    -0.19900
C1527       C  0.76941987  0.51785570  0.61112457    -0.25200
C1528       C  0.77755094  0.51693651  0.59245694     0.27500
H1529       H  0.82987489  0.47332304  0.59716005     0.13200
N1530       N  0.81875764  0.47080613  0.63298139    -0.82500
H1531       H  0.75254244  0.53027246  0.61508571     0.18100
N1532       N  0.76327305  0.53185492  0.57855538    -0.81100
H1533       H  0.83883237  0.47679659  0.63275949     0.33700
H1534       H  0.81794694  0.45066621  0.62911491     0.38200
H1535       H  0.74714899  0.54219945  0.58446256     0.33700
H1536       H  0.77620248  0.54633187  0.57323406     0.30400
H1537       H  0.85517188  0.55130794  0.57199678     0.33700
H1538       H  0.82329363  0.55286992  0.57913337     0.30400
H1539       H  0.82690593  0.44559464  0.52495534     0.38300
H1540       H  0.79462981  0.44666610  0.53139472     0.33700
C1541       C  0.84265841  0.49519471  0.46453707    -0.20000
C1542       C  0.82067155  0.51229223  0.46058458     0.36200
C1543       C  0.81000918  0.51306393  0.44258156    -0.26000
C1544       C  0.82128221  0.49778893  0.42836747     0.02600
C1545       C  0.84320452  0.48082912  0.43214241     0.27500
C1546       C  0.85340777  0.47939947  0.45023084    -0.25100
N1547       N  0.80992127  0.52962843  0.47459208    -0.82500
H1548       H  0.79340710  0.52635149  0.43942502     0.13300
C1549       C  0.81126804  0.50128807  0.40927580     0.02600
N1550       N  0.85569578  0.46601170  0.41744309    -0.81100
H1551       H  0.87017967  0.46620422  0.45310892     0.18100
C1552       C  0.82164193  0.52216447  0.39850952    -0.25900
C1553       C  0.81377030  0.52556391  0.37999060     0.36100
C1554       C  0.79511076  0.50757217  0.37213107    -0.19900
C1555       C  0.78427395  0.48706719  0.38315435    -0.25200
C1556       C  0.79196917  0.48391597  0.40173237     0.27500
H1557       H  0.83633130  0.53554235  0.40452464     0.13200
N1558       N  0.82525763  0.54669540  0.36906197    -0.82500
H1559       H  0.76967824  0.47349136  0.37725054     0.18100
N1560       N  0.77993129  0.46353386  0.41304906    -0.81100
H1561       H  0.83828812  0.55831739  0.37703599     0.33700
H1562       H  0.83690734  0.53779321  0.35875770     0.38200
H1563       H  0.76562101  0.45285901  0.40549434     0.33700
H1564       H  0.79483284  0.44981211  0.41674239     0.30400
H1565       H  0.87210067  0.45511609  0.42242299     0.33700
H1566       H  0.84187953  0.45197803  0.41257358     0.30400
H1567       H  0.82488608  0.54334498  0.47814499     0.38300
H1568       H  0.79382771  0.54077497  0.46943344     0.33700
C1569       C  0.43346727  0.99753425  0.99961219    -0.20000
C1570       C  0.44770627  0.01675255  0.01004499     0.36200
C1571       C  0.47583673  0.01671074  0.00969266    -0.26000
C1572       C  0.49001534  0.99823919  0.99889443     0.02600
C1573       C  0.47591659  0.97927301  0.98827231     0.27500
C1574       C  0.44771928  0.97904663  0.98877700    -0.25100
N1575       N  0.43353830  0.03655942  0.02066216    -0.82500
H1576       H  0.48683613  0.03135989  0.01770825     0.13300
C1577       C  0.51965793  0.99972139  0.99846237     0.02600
N1578       N  0.49030794  0.96056669  0.97690280    -0.81100
H1579       H  0.43679511  0.96438012  0.98073594     0.18100
C1580       C  0.53496549  0.97878874  0.00602157    -0.25900
C1581       C  0.56312674  0.98027075  0.00658782     0.36100
C1582       C  0.57603345  0.00315749  0.99936811    -0.19900
C1583       C  0.56067987  0.02374749  0.99141943    -0.25200
C1584       C  0.53259906  0.02225883  0.99088979     0.27500
H1585       H  0.52485614  0.96143406  0.01168531     0.13200
N1586       N  0.57860456  0.95830438  0.01385098    -0.82500
H1587       H  0.57070117  0.04113459  0.98571748     0.18100
N1588       N  0.51710063  0.04349570  0.98268547    -0.81100
H1589       H  0.56606757  0.94238135  0.01745083     0.33700
H1590       H  0.58757313  0.96464243  0.02613687     0.38200
H1591       H  0.52964030  0.05866449  0.97779686     0.33700
H1592       H  0.50725134  0.03559426  0.97114872     0.30400
H1593       H  0.47698123  0.94793126  0.96997351     0.33700
H1594       H  0.50036038  0.97154779  0.96674071     0.30400
H1595       H  0.42284293  0.04862684  0.01139197     0.38300
H1596       H  0.44696326  0.04911639  0.02756234     0.33700
C1597       C  0.66159892  0.01513658  0.96490614    -0.20000
C1598       C  0.65162420  0.03209406  0.95082018     0.36200
C1599       C  0.66262769  0.03093804  0.93302118    -0.26000
C1600       C  0.68367108  0.01332815  0.92898996     0.02600
C1601       C  0.69495747  0.99758254  0.94323573     0.27500
C1602       C  0.68379503  0.99866023  0.96111437    -0.25100
N1603       N  0.63023058  0.05049489  0.95454442    -0.82500
H1604       H  0.65431072  0.04345618  0.92217083     0.13300
C1605       C  0.69275988  0.01094477  0.90958390     0.02600
N1606       N  0.71761332  0.98059952  0.93948862    -0.81100
H1607       H  0.69170290  0.98579707  0.97190649     0.18100
C1608       C  0.71149251  0.02919554  0.90263012    -0.25900
C1609       C  0.71947533  0.02839888  0.88398010     0.36100
C1610       C  0.70839963  0.00883493  0.87204897    -0.19900
C1611       C  0.68966410  0.99054376  0.87916983    -0.25200
C1612       C  0.68150599  0.99160394  0.89774765     0.27500
H1613       H  0.71977357  0.04420520  0.91179533     0.13200
N1614       N  0.73888275  0.04726193  0.87721898    -0.82500
H1615       H  0.68080455  0.97576782  0.87008519     0.18100
N1616       N  0.66108138  0.97380809  0.90447848    -0.81100
H1617       H  0.74463989  0.06049493  0.88766533     0.33700
H1618       H  0.75604738  0.03648166  0.87353059     0.38200
H1619       H  0.65427365  0.96133248  0.89389214     0.33700
H1620       H  0.66975370  0.96131499  0.91443982     0.30400
H1621       H  0.72373891  0.97068930  0.95150069     0.33700
H1622       H  0.71149371  0.96576650  0.93021465     0.30400
H1623       H  0.63696593  0.06979518  0.95153760     0.38300
H1624       H  0.61436061  0.04614002  0.94554653     0.33700
C1625       C  0.66100312  0.01352430  0.03497553    -0.20000
C1626       C  0.68165845  0.99557999  0.04008530     0.36200
C1627       C  0.69158029  0.99590168  0.05833533    -0.26000
C1628       C  0.68104707  0.01357212  0.07156539     0.02600
C1629       C  0.66089710  0.03193246  0.06632640     0.27500
C1630       C  0.65122864  0.03182007  0.04808363    -0.25100
N1631       N  0.69182347  0.97654529  0.02694953    -0.82500
H1632       H  0.70716412  0.98192469  0.06240805     0.13300
C1633       C  0.69051710  0.01214029  0.09103709     0.02600
N1634       N  0.64980477  0.05009021  0.07970882    -0.81100
H1635       H  0.63537593  0.04559031  0.04416522     0.18100
C1636       C  0.70265329  0.03459597  0.09901795    -0.25900
C1637       C  0.71064079  0.03450765  0.11761614     0.36100
C1638       C  0.70673458  0.01133746  0.12860560    -0.19900
C1639       C  0.69485514  0.98871088  0.12045884    -0.25200
C1640       C  0.68639681  0.98900789  0.10188285     0.27500
H1641       H  0.70580841  0.05243961  0.09075385     0.13200
N1642       N  0.72293123  0.05800380  0.12513591    -0.82500
H1643       H  0.69147320  0.97092666  0.12872320     0.18100
N1644       N  0.67305700  0.96615613  0.09409836    -0.81100
H1645       H  0.73999198  0.06235970  0.11731033     0.33700
H1646       H  0.70947568  0.07395553  0.12371677     0.38200
H1647       H  0.67152420  0.95079783  0.10387616     0.33700
H1648       H  0.65344391  0.97197040  0.09083923     0.30400
H1649       H  0.63518906  0.06233265  0.07362174     0.33700
H1650       H  0.64005001  0.03865021  0.08974938     0.30400
H1651       H  0.67619317  0.96347300  0.02361514     0.38300
H1652       H  0.70697751  0.96487230  0.03289063     0.33700
C1653       C  0.00446762  0.43219343  0.99738989    -0.20000
C1654       C  0.98716970  0.44679730  0.98557706     0.36200
C1655       C  0.98714987  0.47493229  0.98629552    -0.26000
C1656       C  0.00373438  0.48863169  0.99870700     0.02600
C1657       C  0.02099913  0.47421569  0.01048557     0.27500
C1658       C  0.02118507  0.44611975  0.00972679    -0.25100
N1659       N  0.96935383  0.43306216  0.97318401    -0.82500
H1660       H  0.97392215  0.48628664  0.97731630     0.13300
C1661       C  0.00280090  0.51818403  0.99919891     0.02600
N1662       N  0.03817721  0.48819372  0.02317499    -0.81100
H1663       H  0.03463207  0.43500273  0.01868937     0.18100
C1664       C  0.98674028  0.53096219  0.01238270    -0.25900
C1665       C  0.98473649  0.55904769  0.01290215     0.36100
C1666       C  0.99987982  0.57460171  0.00033892    -0.19900
C1667       C  0.01591928  0.56157650  0.98712191    -0.25200
C1668       C  0.01735425  0.53350022  0.98635242     0.27500
H1669       H  0.97532365  0.51891619  0.02203118     0.13200
N1670       N  0.96685884  0.57176069  0.02577211    -0.82500
H1671       H  0.02750698  0.57336690  0.97742740     0.18100
N1672       N  0.03330592  0.52041692  0.97249660    -0.81100
H1673       H  0.95719609  0.55747900  0.03396719     0.33700
H1674       H  0.95191604  0.58145819  0.01810496     0.38200
H1675       H  0.04244196  0.53451522  0.96390460     0.33700
H1676       H  0.04875055  0.51010582  0.97926456     0.30400
H1677       H  0.04945836  0.47464568  0.03099547     0.33700
H1678       H  0.05186048  0.49932981  0.01535657     0.30400
H1679       H  0.95574428  0.42222862  0.98122066     0.38300
H1680       H  0.95811239  0.44674683  0.96542879     0.33700
C1681       C  0.99261006  0.66102553  0.96584085    -0.20000
C1682       C  0.97226646  0.68000257  0.96213887     0.36200
C1683       C  0.97108591  0.69230181  0.94460833    -0.26000
C1684       C  0.98946098  0.68549464  0.93065303     0.02600
C1685       C  0.00965057  0.66637277  0.93441982     0.27500
C1686       C  0.01118416  0.65464566  0.95200261    -0.25100
N1687       N  0.95261324  0.68622960  0.97600489    -0.82500
H1688       H  0.95561122  0.70699173  0.94172374     0.13300
C1689       C  0.98724274  0.69776443  0.91193943     0.02600
N1690       N  0.02820101  0.65850673  0.92022103    -0.81100
H1691       H  0.02679159  0.64008039  0.95488514     0.18100
C1692       C  0.00972463  0.71039626  0.90424706    -0.25900
C1693       C  0.00981768  0.71923453  0.88578527     0.36100
C1694       C  0.98674007  0.71545637  0.87468007    -0.19900
C1695       C  0.96367666  0.70427039  0.88281544    -0.25200
C1696       C  0.96373182  0.69523668  0.90124175     0.27500
H1697       H  0.02754317  0.71288466  0.91265285     0.13200
N1698       N  0.03331523  0.73191988  0.87836942    -0.82500
H1699       H  0.94574453  0.70155646  0.87457564     0.18100
N1700       N  0.94028842  0.68274035  0.90891024    -0.81100
H1701       H  0.04861617  0.73259464  0.88823994     0.33700
H1702       H  0.02826688  0.75179667  0.87535608     0.38200
H1703       H  0.92462802  0.68264244  0.89928998     0.33700
H1704       H  0.94503308  0.66271220  0.91162598     0.30400
H1705       H  0.04191351  0.64440016  0.92527977     0.33700
H1706       H  0.01723611  0.64898787  0.90982685     0.30400
H1707       H  0.94161999  0.66880532  0.97858215     0.38300
H1708       H  0.93898782  0.70048529  0.97105213     0.33700
C1709       C  0.00705483  0.72396903  0.12366266    -0.20000
C1710       C  0.98348449  0.72546770  0.11271564     0.36200
C1711       C  0.98323155  0.71386552  0.09503652    -0.26000
C1712       C  0.00605848  0.70134570  0.08780134     0.02600
C1713       C  0.02999320  0.70110313  0.09817468     0.27500
C1714       C  0.03025478  0.71241025  0.11597120    -0.25100
N1715       N  0.95988380  0.73881502  0.11946510    -0.82500
H1716       H  0.96506355  0.71448856  0.08681038     0.13300
C1717       C  0.00423284  0.68769979  0.06962875     0.02600
N1718       N  0.05374329  0.68879391  0.09077312    -0.81100
H1719       H  0.04848353  0.71134014  0.12406689     0.18100
C1720       C  0.02041667  0.69623910  0.05492146    -0.25900
C1721       C  0.01953965  0.68328517  0.03767189     0.36100
C1722       C  0.00184697  0.66152398  0.03507161    -0.19900
C1723       C  0.98553095  0.65320427  0.04979351    -0.25200
C1724       C  0.98658237  0.66599442  0.06703920     0.27500
H1725       H  0.03389211  0.71296577  0.05698140     0.13200
N1726       N  0.03685500  0.69183386  0.02294208    -0.82500
H1727       H  0.97184883  0.63662524  0.04779689     0.18100
N1728       N  0.96995896  0.65690961  0.08200320    -0.81100
H1729       H  0.04847498  0.70815743  0.02708960     0.33700
H1730       H  0.05017029  0.67615248  0.02017096     0.38200
H1731       H  0.95796912  0.64087294  0.07778908     0.33700
H1732       H  0.98258934  0.64956926  0.09238287     0.30400
H1733       H  0.06970436  0.69045450  0.10006697     0.33700
H1734       H  0.04988670  0.66833571  0.08926676     0.30400
H1735       H  0.96455667  0.75913836  0.12088178     0.38300
H1736       H  0.94430904  0.73772434  0.10983488     0.33700
loop_ 
_geom_bond_atom_site_label_1 
_geom_bond_atom_site_label_2 
_geom_bond_distance 
_geom_bond_site_symmetry_2 
_ccdc_geom_bond_type 
C1            C2   1.403       .  A
C1            C6   1.404   1_556  A
C1         C1681   1.483       .  S
C2            C3   1.402   1_556  A
C2            H7   1.084       .  S
C3            C4   1.405   1_655  A
C3         C1666   1.489       .  S
C4            C5   1.406       .  A
C4            H8   1.083       .  S
C5            C6   1.406   1_455  A
C5         C1722   1.486       .  S
C6            H9   1.083       .  S
C10          C11   1.410   1_554  A
C10          C15   1.405       .  A
C10        C1625   1.487       .  S
C11          C12   1.411       .  A
C11          H16   1.083   1_556  S
C12          C13   1.405       .  A
C12        C1597   1.489       .  S
C13          C14   1.399       .  A
C13          H17   1.084       .  S
C14          C15   1.399   1_556  A
C14        C1582   1.480       .  S
C15          H18   1.084       .  S
C19          C20   1.406       .  A
C19          C24   1.409       .  A
C19        C1541   1.493       .  S
C20          C21   1.402       .  A
C20          H25   1.084       .  S
C21          C22   1.402       .  A
C21        C1485   1.486       .  S
C22          C23   1.406       .  A
C22          H26   1.084       .  S
C23          C24   1.407       .  A
C23        C1513   1.489       .  S
C24          H27   1.082       .  S
C28          C29   1.404       .  A
C28          C33   1.404       .  A
C28        C1429   1.484       .  S
C29          C30   1.405       .  A
C29          H34   1.083       .  S
C30          C31   1.403       .  A
C30        C1470   1.478       .  S
C31          C32   1.403       .  A
C31          H35   1.083       .  S
C32          C33   1.403       .  A
C32        C1401   1.489       .  S
C33          H36   1.084       .  S
C37          C38   1.410       .  A
C37          C42   1.408       .  A
C37        C1345   1.493       .  S
C38          C39   1.407       .  A
C38          H43   1.083       .  S
C39          C40   1.401       .  A
C39        C1373   1.487       .  S
C40          C41   1.399       .  A
C40          H44   1.084       .  S
C41          C42   1.403       .  A
C41        C1414   1.483       .  S
C42          H45   1.083       .  S
C46          C47   1.405       .  A
C46          C51   1.408       .  A
C46        C1317   1.487       .  S
C47          C48   1.399       .  A
C47          H52   1.084       .  S
C48          C49   1.399       .  A
C48        C1498   1.479       .  S
C49          C50   1.407       .  A
C49          H53   1.084       .  S
C50          C51   1.407       .  A
C50        C1302   1.488       .  S
C51          H54   1.083       .  S
C55        C1246   1.494       .  S
C55          N56   1.360       .  A
C55          N60   1.360       .  A
N56          C57   1.357       .  A
C57        C1610   1.488       .  S
C57          N58   1.359   1_545  A
N58          C59   1.360       .  A
C59        C1274   1.487       .  S
C59          N60   1.361   1_565  A
O61         Ni69   1.918       .  S
O61          C71   1.281       .  A
O62         Ni69   1.922       .  S
O62          C72   1.282       .  A
O63         Ni69   1.923       .  S
O63          C73   1.282       .  A
O64         Ni69   1.916       .  S
O64          C74   1.282       .  A
O65         Ni70   1.918       .  S
O65          C74   1.281       .  A
O66         Ni70   1.913       .  S
O66          C73   1.282       .  A
O67         Ni70   1.917       .  S
O67          C72   1.281       .  A
O68         Ni70   1.917       .  S
O68          C71   1.282       .  A
Ni69        Ni70   2.384       .  S
C71        C1218   1.490       .  S
C72        C1149   1.485       .  S
C73        C1177   1.490       .  S
C74        C1233   1.481       .  S
O75         Ni83   1.925       .  S
O75          C85   1.283       .  A
O76         Ni83   1.923       .  S
O76          C86   1.282       .  A
O77         Ni83   1.925       .  S
O77          C87   1.283       .  A
O78         Ni83   1.921       .  S
O78          C88   1.283       .  A
O79         Ni84   1.917       .  S
O79          C88   1.281       .  A
O80         Ni84   1.919       .  S
O80          C87   1.282       .  A
O81         Ni84   1.918       .  S
O81          C86   1.282       .  A
O82         Ni84   1.918       .  S
O82          C85   1.282       .  A
Ni83        Ni84   2.384       .  S
C85        C1093   1.489       .  S
C86        C1261   1.487       .  S
C87        C1121   1.488       .  S
C88        C1065   1.489       .  S
C89        C1050   1.488       .  S
C89          N90   1.361   1_455  A
C89          N94   1.361       .  A
N90          C91   1.362       .  A
C91        C1078   1.491       .  S
C91          N92   1.358       .  A
N92          C93   1.357       .  A
C93        C1694   1.493       .  S
C93          N94   1.360   1_655  A
O95        Ni103   1.924       .  S
O95         C105   1.282       .  A
O96        Ni103   1.926       .  S
O96         C106   1.283       .  A
O97        Ni103   1.920       .  S
O97         C107   1.281       .  A
O98        Ni103   1.921       .  S
O98         C108   1.282       .  A
O99        Ni104   1.924       .  S
O99         C108   1.283       .  A
O100       Ni104   1.924       .  S
O100        C107   1.282       .  A
O101       Ni104   1.921       .  S
O101        C106   1.283       .  A
O102       Ni104   1.919       .  S
O102        C105   1.282       .  A
Ni103      Ni104   2.384       .  S
C105       C1009   1.489       .  S
C106        C953   1.494       .  S
C107        C981   1.484       .  S
C108       C1037   1.487       .  S
C109       C1162   1.484       .  S
C109        N110   1.358       .  A
C109        N114   1.359   1_655  A
N110        C111   1.357   1_655  A
C111        C910   1.485       .  S
C111        N112   1.359       .  A
N112        C113   1.362       .  A
C113        C925   1.493       .  S
C113        N114   1.360       .  A
O115       Ni123   1.915       .  S
O115        C125   1.281       .  A
O116       Ni123   1.916       .  S
O116        C126   1.282       .  A
O117       Ni123   1.923       .  S
O117        C127   1.283       .  A
O118       Ni123   1.920       .  S
O118        C128   1.282       .  A
O119       Ni124   1.920       .  S
O119        C128   1.282       .  A
O120       Ni124   1.918       .  S
O120        C127   1.282       .  A
O121       Ni124   1.910       .  S
O121        C126   1.279       .  A
O122       Ni124   1.911       .  S
O122        C125   1.280       .  A
Ni123      Ni124   2.385       .  S
C125        C869   1.477       .  S
C126        C938   1.484       .  S
C127        C841   1.490       .  S
C128        C813   1.487       .  S
C129        C826   1.489       .  S
C129        N130   1.359       .  A
C129        N134   1.363       .  A
N130        C131   1.358       .  A
C131        C785   1.490       .  S
C131        N132   1.358   1_545  A
N132        C133   1.359       .  A
C133        C966   1.495       .  S
C133        N134   1.364   1_565  A
C135       C1022   1.484       .  S
C135        N136   1.359       .  A
C135        N140   1.360       .  A
N136        C137   1.358       .  A
C137       C1289   1.483       .  S
C137        N138   1.358       .  A
N138        C139   1.360       .  A
C139        C854   1.493       .  S
C139        N140   1.361       .  A
C141        C882   1.476       .  S
C141        N142   1.358       .  A
C141        N146   1.354       .  A
N142        C143   1.360       .  A
C143       C1358   1.482       .  S
C143        N144   1.362       .  A
N144        C145   1.362       .  A
C145       C1205   1.482       .  S
C145        N146   1.356       .  A
C147       C1134   1.484       .  S
C147        N148   1.359       .  A
C147        N152   1.361       .  A
N148        C149   1.358       .  A
C149       C1442   1.492       .  S
C149        N150   1.360       .  A
N150        C151   1.359       .  A
C151        C994   1.479       .  S
C151        N152   1.361       .  A
C153       C1106   1.494       .  S
C153        N154   1.364       .  A
C153        N158   1.361       .  A
N154        C155   1.362       .  A
C155       C1526   1.482       .  S
C155        N156   1.358       .  A
N156        C157   1.357       .  A
C157       C1190   1.478       .  S
C157        N158   1.356       .  A
C159        C160   1.403       .  A
C159        C164   1.404       .  A
C159        C757   1.484       .  S
C160        C161   1.400   1_554  A
C160        H165   1.084       .  S
C161        C162   1.402       .  A
C161       C1569   1.484       .  S
C162        C163   1.407       .  A
C162        H166   1.084       .  S
C163        C164   1.405   1_556  A
C163        C798   1.484   1_565  S
C164        H167   1.083   1_565  S
C168        C169   1.411       .  A
C168        C173   1.408       .  A
C168        C897   1.494       .  S
C169        C170   1.409   1_556  A
C169        H174   1.083       .  S
C170        C171   1.402       .  A
C170        C729   1.487       .  S
C171        C172   1.399   1_554  A
C171        H175   1.084       .  S
C172        C173   1.402       .  A
C172       C1653   1.486       .  S
C173        H176   1.083       .  S
C177        C673   1.500       .  S
C177        N178   1.362       .  A
C177        N182   1.362       .  A
N178        C179   1.361       .  A
C179       C1709   1.492       .  S
C179        N180   1.357   1_455  A
N180        C181   1.355       .  A
C181        C714   1.478       .  S
C181        N182   1.358   1_655  A
O183       Ni191   1.924       .  S
O183        C193   1.284       .  A
O184       Ni191   1.922       .  S
O184        C194   1.283       .  A
O185       Ni191   1.913       .  S
O185        C195   1.281       .  A
O186       Ni191   1.913       .  S
O186        C196   1.280       .  A
O187       Ni192   1.923       .  S
O187        C196   1.282       .  A
O188       Ni192   1.921       .  S
O188        C195   1.282       .  A
O189       Ni192   1.922       .  S
O189        C194   1.282       .  A
O190       Ni192   1.914       .  S
O190        C193   1.280       .  A
Ni191      Ni192   2.384       .  S
C193        C602   1.494       .  S
C194        C645   1.497       .  S
C195        C686   1.481       .  S
C196        C617   1.477       .  S
O197       Ni205   1.917       .  S
O197        C207   1.280       .  A
O198       Ni205   1.920       .  S
O198        C208   1.282       .  A
O199       Ni205   1.923       .  S
O199        C209   1.283       .  A
O200       Ni205   1.925       .  S
O200        C210   1.283       .  A
O201       Ni206   1.918       .  S
O201        C210   1.282       .  A
O202       Ni206   1.917       .  S
O202        C209   1.281       .  A
O203       Ni206   1.912       .  S
O203        C208   1.280       .  A
O204       Ni206   1.911       .  S
O204        C207   1.280       .  A
Ni205      Ni206   2.388       .  S
C207        C518   1.468       .  S
C208        C561   1.475       .  S
C209        C701   1.490       .  S
C210        C533   1.484       .  S
C211        C490   1.475       .  S
C211        N212   1.355       .  A
C211        N216   1.357       .  A
N212        C213   1.356       .  A
C213       C1638   1.491       .  S
C213        N214   1.361   1_545  A
N214        C215   1.362       .  A
C215        C505   1.479       .  S
C215        N216   1.360   1_565  A
O217       Ni225   1.911       .  S
O217        C227   1.281       .  A
O218       Ni225   1.913       .  S
O218        C228   1.280       .  A
O219       Ni225   1.913       .  S
O219        C229   1.282       .  A
O220       Ni225   1.915       .  S
O220        C230   1.281       .  A
O221       Ni226   1.916       .  S
O221        C230   1.281       .  A
O222       Ni226   1.913       .  S
O222        C229   1.280       .  A
O223       Ni226   1.917       .  S
O223        C228   1.282       .  A
O224       Ni226   1.918       .  S
O224        C227   1.282       .  A
Ni225      Ni226   2.385       .  S
C227        C477   1.485       .  S
C228        C421   1.481       .  S
C229        C393   1.486       .  S
C230        C449   1.481       .  S
C231        C378   1.491       .  S
C231        N232   1.359       .  A
C231        N236   1.363       .  A
N232        C233   1.356       .  A
C233        C770   1.476       .  S
C233        N234   1.355   1_545  A
N234        C235   1.356       .  A
C235        C589   1.476       .  S
C235        N236   1.361   1_565  A
C237        C406   1.475       .  S
C237        N238   1.355   1_655  A
C237        N242   1.358       .  A
N238        C239   1.355       .  A
C239        C350   1.486       .  S
C239        N240   1.360       .  A
N240        C241   1.358       .  A
C241        C742   1.475       .  S
C241        N242   1.357   1_455  A
O243       Ni251   1.918       .  S
O243        C253   1.282       .  A
O244       Ni251   1.916       .  S
O244        C254   1.280       .  A
O245       Ni251   1.910       .  S
O245        C255   1.280       .  A
O246       Ni251   1.919       .  S
O246        C256   1.282       .  A
O247       Ni252   1.919       .  S
O247        C256   1.282       .  A
O248       Ni252   1.918       .  S
O248        C255   1.282       .  A
O249       Ni252   1.918       .  S
O249        C254   1.280       .  A
O250       Ni252   1.918       .  S
O250        C253   1.282       .  A
Ni251      Ni252   2.388       .  S
C253        C365   1.483       .  S
C254        C309   1.471       .  S
C255        C337   1.474       .  S
C256        C294   1.491       .  S
C257        C281   1.494       .  S
C257        N258   1.360       .  A
C257        N262   1.360       .  A
N258        C259   1.360       .  A
C259        C462   1.482       .  S
C259        N260   1.359       .  A
N260        C261   1.358       .  A
C261       C1386   1.496       .  S
C261        N262   1.358       .  A
C263        C658   1.490       .  S
C263        N264   1.361       .  A
C263        N268   1.363       .  A
N264        C265   1.358       .  A
C265       C1330   1.479       .  S
C265        N266   1.354       .  A
N266        C267   1.356       .  A
C267        C322   1.491       .  S
C267        N268   1.363       .  A
C269        C574   1.480       .  S
C269        N270   1.359       .  A
C269        N274   1.359       .  A
N270        C271   1.359       .  A
C271        C434   1.482       .  S
C271        N272   1.358       .  A
N272        C273   1.357       .  A
C273       C1554   1.482       .  S
C273        N274   1.358       .  A
C275        C546   1.496       .  S
C275        N276   1.359       .  A
C275        N280   1.362       .  A
N276        C277   1.356       .  A
C277       C1457   1.485       .  S
C277        N278   1.356       .  A
N278        C279   1.357       .  A
C279        C630   1.479       .  S
C279        N280   1.361       .  A
C281        C282   1.419       .  A
C281        C286   1.407       .  A
C282        C283   1.410       .  A
C282        N287   1.438       .  S
C283        C284   1.404       .  A
C283        H288   1.084       .  S
C284        C285   1.410       .  A
C284        C289   1.490       .  S
C285        C286   1.403       .  A
C285        N290   1.438       .  S
C286        H291   1.083       .  S
N287        H307   1.045       .  S
N287        H308   1.045       .  S
C289        C292   1.402       .  A
C289        C296   1.411       .  A
N290        H305   1.045       .  S
N290        H306   1.045       .  S
C292        C293   1.406       .  A
C292        H297   1.084       .  S
C293        C294   1.417       .  A
C293        N298   1.438       .  S
C294        C295   1.408       .  A
C295        C296   1.408       .  A
C295        H299   1.083       .  S
C296        N300   1.438       .  S
N298        H301   1.044       .  S
N298        H302   1.047       .  S
N300        H303   1.046       .  S
N300        H304   1.045       .  S
C309        C310   1.410       .  A
C309        C314   1.401       .  A
C310        C311   1.406       .  A
C310        N315   1.438       .  S
C311        C312   1.401       .  A
C311        H316   1.084       .  S
C312        C313   1.409       .  A
C312        C317   1.477       .  S
C313        C314   1.406       .  A
C313        N318   1.437       .  S
C314        H319   1.084       .  S
N315        H335   1.046       .  S
N315        H336   1.046       .  S
C317        C320   1.397       .  A
C317        C324   1.407       .  A
N318        H333   1.045       .  S
N318        H334   1.046       .  S
C320        C321   1.404       .  A
C320        H325   1.084       .  S
C321        C322   1.421       .  A
C321        N326   1.438       .  S
C322        C323   1.408       .  A
C323        C324   1.408       .  A
C323        H327   1.083       .  S
C324        N328   1.437       .  S
N326        H329   1.046       .  S
N326        H330   1.045       .  S
N328        H331   1.046       .  S
N328        H332   1.045       .  S
C337        C338   1.410       .  A
C337        C342   1.404       .  A
C338        C339   1.403       .  A
C338        N343   1.438       .  S
C339        C340   1.403       .  A
C339        H344   1.084       .  S
C340        C341   1.411       .  A
C340        C345   1.483       .  S
C341        C342   1.404       .  A
C341        N346   1.438       .  S
C342        H347   1.084       .  S
N343        H363   1.045       .  S
N343        H364   1.046       .  S
C345        C348   1.401       .  A
C345        C352   1.409       .  A
N346        H361   1.045       .  S
N346        H362   1.046       .  S
C348        C349   1.404       .  A
C348        H353   1.084       .  S
C349        C350   1.419       .  A
C349        N354   1.438       .  S
C350        C351   1.405       .  A
C351        C352   1.402       .  A
C351        H355   1.083       .  S
C352        N356   1.438       .  S
N354        H357   1.046       .  S
N354        H358   1.046       .  S
N356        H359   1.046       .  S
N356        H360   1.045       .  S
C365        C366   1.415       .  A
C365        C370   1.405       .  A
C366        C367   1.407       .  A
C366        N371   1.438       .  S
C367        C368   1.402       .  A
C367        H372   1.084       .  S
C368        C369   1.410       .  A
C368        C373   1.484       .  S
C369        C370   1.406       .  A
C369        N374   1.438       .  S
C370        H375   1.084       .  S
N371        H391   1.046       .  S
N371        H392   1.046       .  S
C373        C376   1.400       .  A
C373        C380   1.409       .  A
N374        H389   1.046       .  S
N374        H390   1.046       .  S
C376        C377   1.406       .  A
C376        H381   1.084       .  S
C377        C378   1.419       .  A
C377        N382   1.438       .  S
C378        C379   1.408       .  A
C379        C380   1.407       .  A
C379        H383   1.083       .  S
C380        N384   1.438       .  S
N382        H385   1.046       .  S
N382        H386   1.045       .  S
N384        H387   1.045       .  S
N384        H388   1.046       .  S
C393        C394   1.419       .  A
C393        C398   1.407       .  A
C394        C395   1.405       .  A
C394        N399   1.438       .  S
C395        C396   1.400       .  A
C395        H400   1.084       .  S
C396        C397   1.406       .  A
C396        C401   1.476       .  S
C397        C398   1.401       .  A
C397        N402   1.438       .  S
C398        H403   1.083       .  S
N399        H419   1.045       .  S
N399        H420   1.046       .  S
C401        C404   1.402       .  A
C401        C408   1.408       .  A
N402        H417   1.045       .  S
N402        H418   1.046       .  S
C404        C405   1.403       .  A
C404        H409   1.084       .  S
C405        C406   1.411       .  A
C405        N410   1.438       .  S
C406        C407   1.405       .  A
C407        C408   1.402       .  A
C407        H411   1.084       .  S
C408        N412   1.438       .  S
N410        H413   1.045       .  S
N410        H414   1.046       .  S
N412        H415   1.046       .  S
N412        H416   1.046       .  S
C421        C422   1.414       .  A
C421        C426   1.406       .  A
C422        C423   1.405       .  A
C422        N427   1.438       .  S
C423        C424   1.401       .  A
C423        H428   1.084       .  S
C424        C425   1.406       .  A
C424        C429   1.476       .  S
C425        C426   1.404       .  A
C425        N430   1.438       .  S
C426        H431   1.083       .  S
N427        H447   1.046       .  S
N427        H448   1.046       .  S
C429        C432   1.400       .  A
C429        C436   1.407       .  A
N430        H445   1.045       .  S
N430        H446   1.046       .  S
C432        C433   1.407       .  A
C432        H437   1.084       .  S
C433        C434   1.415       .  A
C433        N438   1.438       .  S
C434        C435   1.406       .  A
C435        C436   1.403       .  A
C435        H439   1.084       .  S
C436        N440   1.438       .  S
N438        H441   1.045       .  S
N438        H442   1.046       .  S
N440        H443   1.046       .  S
N440        H444   1.046       .  S
C449        C450   1.414       .  A
C449        C454   1.404       .  A
C450        C451   1.405       .  A
C450        N455   1.438       .  S
C451        C452   1.402       .  A
C451        H456   1.084       .  S
C452        C453   1.411       .  A
C452        C457   1.485       .  S
C453        C454   1.405       .  A
C453        N458   1.438       .  S
C454        H459   1.084       .  S
N455        H475   1.046       .  S
N455        H476   1.046       .  S
C457        C460   1.402       .  A
C457        C464   1.412       .  A
N458        H473   1.046       .  S
N458        H474   1.045       .  S
C460        C461   1.401       .  A
C460        H465   1.084       .  S
C461        C462   1.411       .  A
C461        N466   1.433       .  S
C462        C463   1.405       .  A
C463        C464   1.408       .  A
C463        H467   1.084       .  S
C464        N468   1.438       .  S
N466        H469   1.046       .  S
N466        H470   1.045       .  S
N468        H471   1.045       .  S
N468        H472   1.046       .  S
C477        C478   1.416       .  A
C477        C482   1.406       .  A
C478        C479   1.406       .  A
C478        N483   1.438       .  S
C479        C480   1.402       .  A
C479        H484   1.084       .  S
C480        C481   1.410       .  A
C480        C485   1.483       .  S
C481        C482   1.402       .  A
C481        N486   1.438       .  S
C482        H487   1.083       .  S
N483        H503   1.045       .  S
N483        H504   1.046       .  S
C485        C488   1.402       .  A
C485        C492   1.412       .  A
N486        H501   1.046       .  S
N486        H502   1.045       .  S
C488        C489   1.402       .  A
C488        H493   1.084       .  S
C489        C490   1.411       .  A
C489        N494   1.438       .  S
C490        C491   1.403       .  A
C491        C492   1.407       .  A
C491        H495   1.084       .  S
C492        N496   1.438       .  S
N494        H497   1.046       .  S
N494        H498   1.046       .  S
N496        H499   1.046       .  S
N496        H500   1.045       .  S
C505        C506   1.413       .  A
C505        C510   1.405       .  A
C506        C507   1.405       .  A
C506        N511   1.438       .  S
C507        C508   1.400       .  A
C507        H512   1.084       .  S
C508        C509   1.407       .  A
C508        C513   1.474       .  S
C509        C510   1.405       .  A
C509        N514   1.438       .  S
C510        H515   1.084       .  S
N511        H531   1.046       .  S
N511        H532   1.046       .  S
C513        C516   1.399       .  A
C513        C520   1.409       .  A
N514        H529   1.045       .  S
N514        H530   1.045       .  S
C516        C517   1.403       .  A
C516        H521   1.084       .  S
C517        C518   1.410       .  A
C517        N522   1.437       .  S
C518        C519   1.402       .  A
C519        C520   1.405       .  A
C519        H523   1.083       .  S
C520        N524   1.438       .  S
N522        H525   1.045       .  S
N522        H526   1.045       .  S
N524        H527   1.045       .  S
N524        H528   1.046       .  S
C533        C534   1.414       .  A
C533        C538   1.404       .  A
C534        C535   1.409       .  A
C534        N539   1.438       .  S
C535        C536   1.404       .  A
C535        H540   1.084       .  S
C536        C537   1.410       .  A
C536        C541   1.488       .  S
C537        C538   1.406       .  A
C537        N542   1.438       .  S
C538        H543   1.084       .  S
N539        H559   1.045       .  S
N539        H560   1.046       .  S
C541        C544   1.403       .  A
C541        C548   1.408       .  A
N542        H557   1.045       .  S
N542        H558   1.046       .  S
C544        C545   1.409       .  A
C544        H549   1.084       .  S
C545        C546   1.419       .  A
C545        N550   1.438       .  S
C546        C547   1.410       .  A
C547        C548   1.405       .  A
C547        H551   1.083       .  S
C548        N552   1.438       .  S
N550        H553   1.046       .  S
N550        H554   1.045       .  S
N552        H555   1.046       .  S
N552        H556   1.045       .  S
C561        C562   1.412       .  A
C561        C566   1.403       .  A
C562        C563   1.407       .  A
C562        N567   1.438       .  S
C563        C564   1.401       .  A
C563        H568   1.084       .  S
C564        C565   1.407       .  A
C564        C569   1.476       .  S
C565        C566   1.403       .  A
C565        N570   1.438       .  S
C566        H571   1.084       .  S
N567        H587   1.046       .  S
N567        H588   1.046       .  S
C569        C572   1.399       .  A
C569        C576   1.407       .  A
N570        H585   1.045       .  S
N570        H586   1.045       .  S
C572        C573   1.404       .  A
C572        H577   1.084       .  S
C573        C574   1.414       .  A
C573        N578   1.438       .  S
C574        C575   1.406       .  A
C575        C576   1.406       .  A
C575        H579   1.084       .  S
C576        N580   1.438       .  S
N578        H581   1.046       .  S
N578        H582   1.046       .  S
N580        H583   1.046       .  S
N580        H584   1.046       .  S
C589        C590   1.408       .  A
C589        C594   1.402       .  A
C590        C591   1.402       .  A
C590        N595   1.432       .  S
C591        C592   1.404       .  A
C591        H596   1.084       .  S
C592        C593   1.415       .  A
C592        C597   1.490       .  S
C593        C594   1.408       .  A
C593        N598   1.438       .  S
C594        H599   1.084       .  S
N595        H615   1.046       .  S
N595        H616   1.045       .  S
C597        C600   1.402       .  A
C597        C604   1.411       .  A
N598        H613   1.046       .  S
N598        H614   1.045       .  S
C600        C601   1.406       .  A
C600        H605   1.084       .  S
C601        C602   1.420       .  A
C601        N606   1.438       .  S
C602        C603   1.408       .  A
C603        C604   1.406       .  A
C603        H607   1.083       .  S
C604        N608   1.438       .  S
N606        H609   1.046       .  S
N606        H610   1.045       .  S
N608        H611   1.045       .  S
N608        H612   1.046       .  S
C617        C618   1.412       .  A
C617        C622   1.404       .  A
C618        C619   1.406       .  A
C618        N623   1.438       .  S
C619        C620   1.402       .  A
C619        H624   1.084       .  S
C620        C621   1.408       .  A
C620        C625   1.479       .  S
C621        C622   1.406       .  A
C621        N626   1.437       .  S
C622        H627   1.084       .  S
N623        H643   1.046       .  S
N623        H644   1.047       .  S
C625        C628   1.400       .  A
C625        C632   1.408       .  A
N626        H641   1.046       .  S
N626        H642   1.046       .  S
C628        C629   1.405       .  A
C628        H633   1.084       .  S
C629        C630   1.413       .  A
C629        N634   1.438       .  S
C630        C631   1.404       .  A
C631        C632   1.407       .  A
C631        H635   1.084       .  S
C632        N636   1.437       .  S
N634        H637   1.046       .  S
N634        H638   1.046       .  S
N636        H639   1.046       .  S
N636        H640   1.046       .  S
C645        C646   1.419       .  A
C645        C650   1.409       .  A
C646        C647   1.408       .  A
C646        N651   1.438       .  S
C647        C648   1.403       .  A
C647        H652   1.084       .  S
C648        C649   1.411       .  A
C648        C653   1.494       .  S
C649        C650   1.408       .  A
C649        N654   1.438       .  S
C650        H655   1.083       .  S
N651        H671   1.045       .  S
N651        H672   1.046       .  S
C653        C656   1.405       .  A
C653        C660   1.412       .  A
N654        H669   1.046       .  S
N654        H670   1.045       .  S
C656        C657   1.409       .  A
C656        H661   1.083       .  S
C657        C658   1.416       .  A
C657        N662   1.437       .  S
C658        C659   1.406       .  A
C659        C660   1.406       .  A
C659        H663   1.084       .  S
C660        N664   1.438       .  S
N662        H665   1.046       .  S
N662        H666   1.045       .  S
N664        H667   1.046       .  S
N664        H668   1.045       .  S
C673        C674   1.421       .  A
C673        C678   1.411       .  A
C674        C675   1.407       .  A
C674        N679   1.437       .  S
C675        C676   1.402       .  A
C675        H680   1.084       .  S
C676        C677   1.408       .  A
C676        C681   1.489       .  S
C677        C678   1.407       .  A
C677        N682   1.438       .  S
C678        H683   1.083       .  S
N679        H699   1.045       .  S
N679        H700   1.046       .  S
C681        C684   1.404       .  A
C681        C688   1.412       .  A
N682        H697   1.046       .  S
N682        H698   1.045       .  S
C684        C685   1.408       .  A
C684        H689   1.084       .  S
C685        C686   1.414       .  A
C685        N690   1.438       .  S
C686        C687   1.403       .  A
C687        C688   1.404       .  A
C687        H691   1.084       .  S
C688        N692   1.438       .  S
N690        H693   1.045       .  S
N690        H694   1.047       .  S
N692        H695   1.046       .  S
N692        H696   1.045       .  S
C701        C702   1.417       .  A
C701        C706   1.407       .  A
C702        C703   1.405       .  A
C702        N707   1.437       .  S
C703        C704   1.401       .  A
C703        H708   1.084       .  S
C704        C705   1.409       .  A
C704        C709   1.486       .  S
C705        C706   1.408       .  A
C705        N710   1.437       .  S
C706        H711   1.083       .  S
N707        H727   1.043       .  S
N707        H728   1.047       .  S
C709        C712   1.404       .  A
C709        C716   1.410       .  A
N710        H725   1.045       .  S
N710        H726   1.046       .  S
C712        C713   1.408       .  A
C712        H717   1.084       .  S
C713        C714   1.411       .  A
C713        N718   1.438       .  S
C714        C715   1.403       .  A
C715        C716   1.405       .  A
C715        H719   1.084       .  S
C716        N720   1.438       .  S
N718        H721   1.046       .  S
N718        H722   1.046       .  S
N720        H723   1.046       .  S
N720        H724   1.046       .  S
C729        C730   1.413       .  A
C729        C734   1.407   1_455  A
C730        C731   1.408       .  A
C730        N735   1.437       .  S
C731        C732   1.401       .  A
C731        H736   1.084       .  S
C732        C733   1.407   1_455  A
C732        C737   1.478       .  S
C733        C734   1.404       .  A
C733        N738   1.438       .  S
C734        H739   1.084       .  S
N735        H755   1.046       .  S
N735        H756   1.046       .  S
C737        C740   1.402       .  A
C737        C744   1.408   1_455  A
N738        H753   1.045       .  S
N738        H754   1.045       .  S
C740        C741   1.405       .  A
C740        H745   1.084       .  S
C741        C742   1.411       .  A
C741        N746   1.438       .  S
C742        C743   1.403   1_455  A
C743        C744   1.405       .  A
C743        H747   1.084       .  S
C744        N748   1.438       .  S
N746        H749   1.046       .  S
N746        H750   1.045       .  S
N748        H751   1.045       .  S
N748        H752   1.045       .  S
C757        C758   1.414       .  A
C757        C762   1.406   1_565  A
C758        C759   1.407       .  A
C758        N763   1.438       .  S
C759        C760   1.401   1_565  A
C759        H764   1.084       .  S
C760        C761   1.406       .  A
C760        C765   1.473       .  S
C761        C762   1.401       .  A
C761        N766   1.438       .  S
C762        H767   1.084       .  S
N763        H783   1.046       .  S
N763        H784   1.045       .  S
C765        C768   1.400   1_545  A
C765        C772   1.406       .  A
N766        H781   1.045       .  S
N766        H782   1.046       .  S
C768        C769   1.404       .  A
C768        H773   1.084       .  S
C769        C770   1.413   1_565  A
C769        N774   1.438       .  S
C770        C771   1.405       .  A
C771        C772   1.404       .  A
C771        H775   1.084       .  S
C772        N776   1.438       .  S
N774        H777   1.045       .  S
N774        H778   1.046       .  S
N776        H779   1.046       .  S
N776        H780   1.044       .  S
C785        C786   1.417       .  A
C785        C790   1.407   1_545  A
C786        C787   1.407       .  A
C786        N791   1.438       .  S
C787        C788   1.403       .  A
C787        H792   1.084       .  S
C788        C789   1.411   1_545  A
C788        C793   1.488       .  S
C789        C790   1.405       .  A
C789        N794   1.438       .  S
C790        H795   1.083       .  S
N791        H811   1.045       .  S
N791        H812   1.046       .  S
C793        C796   1.405   1_545  A
C793        C800   1.412       .  A
N794        H809   1.046       .  S
N794        H810   1.045       .  S
C796        C797   1.407       .  A
C796        H801   1.084       .  S
C797        C798   1.412   1_565  A
C797        N802   1.438       .  S
C798        C799   1.403       .  A
C799        C800   1.403       .  A
C799        H803   1.084       .  S
C800        N804   1.438       .  S
N802        H805   1.045       .  S
N802        H806   1.046       .  S
N804        H807   1.046       .  S
N804        H808   1.045       .  S
C813        C814   1.415       .  A
C813        C818   1.405       .  A
C814        C815   1.408       .  A
C814        N819   1.438       .  S
C815        C816   1.404       .  A
C815        H820   1.084       .  S
C816        C817   1.412       .  A
C816        C821   1.492       .  S
C817        C818   1.407       .  A
C817        N822   1.438       .  S
C818        H823   1.083       .  S
N819        H839   1.047       .  S
N819        H840   1.045       .  S
C821        C824   1.405       .  A
C821        C828   1.411       .  A
N822        H837   1.045       .  S
N822        H838   1.045       .  S
C824        C825   1.409       .  A
C824        H829   1.084       .  S
C825        C826   1.414       .  A
C825        N830   1.437       .  S
C826        C827   1.407       .  A
C827        C828   1.407       .  A
C827        H831   1.084       .  S
C828        N832   1.438       .  S
N830        H833   1.046       .  S
N830        H834   1.046       .  S
N832        H835   1.045       .  S
N832        H836   1.046       .  S
C841        C842   1.417       .  A
C841        C846   1.407       .  A
C842        C843   1.408       .  A
C842        N847   1.438       .  S
C843        C844   1.403       .  A
C843        H848   1.084       .  S
C844        C845   1.409       .  A
C844        C849   1.489       .  S
C845        C846   1.406       .  A
C845        N850   1.438       .  S
C846        H851   1.083       .  S
N847        H867   1.046       .  S
N847        H868   1.046       .  S
C849        C852   1.403       .  A
C849        C856   1.409       .  A
N850        H865   1.045       .  S
N850        H866   1.045       .  S
C852        C853   1.408       .  A
C852        H857   1.084       .  S
C853        C854   1.418       .  A
C853        N858   1.438       .  S
C854        C855   1.408       .  A
C855        C856   1.406       .  A
C855        H859   1.083       .  S
C856        N860   1.438       .  S
N858        H861   1.046       .  S
N858        H862   1.045       .  S
N860        H863   1.045       .  S
N860        H864   1.046       .  S
C869        C870   1.415       .  A
C869        C874   1.405       .  A
C870        C871   1.404       .  A
C870        N875   1.438       .  S
C871        C872   1.399       .  A
C871        H876   1.084       .  S
C872        C873   1.407       .  A
C872        C877   1.472       .  S
C873        C874   1.404       .  A
C873        N878   1.438       .  S
C874        H879   1.084       .  S
N875        H895   1.046       .  S
N875        H896   1.045       .  S
C877        C880   1.398       .  A
C877        C884   1.407       .  A
N878        H893   1.046       .  S
N878        H894   1.044       .  S
C880        C881   1.403       .  A
C880        H885   1.084       .  S
C881        C882   1.415       .  A
C881        N886   1.437       .  S
C882        C883   1.404       .  A
C883        C884   1.404       .  A
C883        H887   1.084       .  S
C884        N888   1.438       .  S
N886        H889   1.045       .  S
N886        H890   1.045       .  S
N888        H891   1.045       .  S
N888        H892   1.045       .  S
C897        C898   1.417       .  A
C897        C902   1.408   1_455  A
C898        C899   1.405       .  A
C898        N903   1.438       .  S
C899        C900   1.399       .  A
C899        H904   1.084       .  S
C900        C901   1.409   1_455  A
C900        C905   1.481       .  S
C901        C902   1.409       .  A
C901        N906   1.438       .  S
C902        H907   1.083       .  S
N903        H923   1.045       .  S
N903        H924   1.046       .  S
C905        C908   1.401       .  A
C905        C912   1.409   1_455  A
N906        H921   1.045       .  S
N906        H922   1.045       .  S
C908        C909   1.409       .  A
C908        H913   1.084       .  S
C909        C910   1.415       .  A
C909        N914   1.438       .  S
C910        C911   1.405   1_455  A
C911        C912   1.405       .  A
C911        H915   1.084       .  S
C912        N916   1.438       .  S
N914        H917   1.046       .  S
N914        H918   1.046       .  S
N916        H919   1.046       .  S
N916        H920   1.045       .  S
C925        C926   1.421       .  A
C925        C930   1.408       .  A
C926        C927   1.407       .  A
C926        N931   1.437       .  S
C927        C928   1.400       .  A
C927        H932   1.084       .  S
C928        C929   1.408       .  A
C928        C933   1.482       .  S
C929        C930   1.404       .  A
C929        N934   1.438       .  S
C930        H935   1.083       .  S
N931        H951   1.045       .  S
N931        H952   1.046       .  S
C933        C936   1.401       .  A
C933        C940   1.408       .  A
N934        H949   1.045       .  S
N934        H950   1.046       .  S
C936        C937   1.404       .  A
C936        H941   1.084       .  S
C937        C938   1.417       .  A
C937        N942   1.438       .  S
C938        C939   1.407       .  A
C939        C940   1.405       .  A
C939        H943   1.083       .  S
C940        N944   1.438       .  S
N942        H945   1.046       .  S
N942        H946   1.046       .  S
N944        H947   1.046       .  S
N944        H948   1.046       .  S
C953        C954   1.417       .  A
C953        C958   1.408       .  A
C954        C955   1.409       .  A
C954        N959   1.437       .  S
C955        C956   1.403       .  A
C955        H960   1.084       .  S
C956        C957   1.411       .  A
C956        C961   1.493       .  S
C957        C958   1.408       .  A
C957        N962   1.438       .  S
C958        H963   1.083       .  S
N959        H979   1.045       .  S
N959        H980   1.046       .  S
C961        C964   1.402       .  A
C961        C968   1.412       .  A
N962        H977   1.046       .  S
N962        H978   1.046       .  S
C964        C965   1.408       .  A
C964        H969   1.084       .  S
C965        C966   1.418       .  A
C965        N970   1.438       .  S
C966        C967   1.407       .  A
C967        C968   1.409       .  A
C967        H971   1.083       .  S
C968        N972   1.438       .  S
N970        H973   1.046       .  S
N970        H974   1.046       .  S
N972        H975   1.045       .  S
N972        H976   1.045       .  S
C981        C982   1.414       .  A
C981        C986   1.405       .  A
C982        C983   1.407       .  A
C982        N987   1.438       .  S
C983        C984   1.401       .  A
C983        H988   1.084       .  S
C984        C985   1.410       .  A
C984        C989   1.483       .  S
C985        C986   1.408       .  A
C985        N990   1.438       .  S
C986        H991   1.084       .  S
N987       H1007   1.046       .  S
N987       H1008   1.046       .  S
C989        C992   1.402       .  A
C989        C996   1.411       .  A
N990       H1005   1.047       .  S
N990       H1006   1.043       .  S
C992        C993   1.408       .  A
C992        H997   1.084       .  S
C993        C994   1.412       .  A
C993        N998   1.438       .  S
C994        C995   1.402       .  A
C995        C996   1.408       .  A
C995        H999   1.084       .  S
C996       N1000   1.438       .  S
N998       H1001   1.046       .  S
N998       H1002   1.046       .  S
N1000      H1003   1.046       .  S
N1000      H1004   1.043       .  S
C1009      C1010   1.416       .  A
C1009      C1014   1.407       .  A
C1010      C1011   1.408       .  A
C1010      N1015   1.438       .  S
C1011      C1012   1.404       .  A
C1011      H1016   1.084       .  S
C1012      C1013   1.409       .  A
C1012      C1017   1.489       .  S
C1013      C1014   1.406       .  A
C1013      N1018   1.438       .  S
C1014      H1019   1.083       .  S
N1015      H1035   1.045       .  S
N1015      H1036   1.046       .  S
C1017      C1020   1.404       .  A
C1017      C1024   1.410       .  A
N1018      H1033   1.046       .  S
N1018      H1034   1.045       .  S
C1020      C1021   1.408       .  A
C1020      H1025   1.084       .  S
C1021      C1022   1.414       .  A
C1021      N1026   1.438       .  S
C1022      C1023   1.405       .  A
C1023      C1024   1.406       .  A
C1023      H1027   1.084       .  S
C1024      N1028   1.438       .  S
N1026      H1029   1.046       .  S
N1026      H1030   1.045       .  S
N1028      H1031   1.046       .  S
N1028      H1032   1.046       .  S
C1037      C1038   1.415       .  A
C1037      C1042   1.407       .  A
C1038      C1039   1.407       .  A
C1038      N1043   1.437       .  S
C1039      C1040   1.400       .  A
C1039      H1044   1.084       .  S
C1040      C1041   1.410       .  A
C1040      C1045   1.484       .  S
C1041      C1042   1.409       .  A
C1041      N1046   1.438       .  S
C1042      H1047   1.084       .  S
N1043      H1063   1.046       .  S
N1043      H1064   1.045       .  S
C1045      C1048   1.402       .  A
C1045      C1052   1.408       .  A
N1046      H1061   1.047       .  S
N1046      H1062   1.044       .  S
C1048      C1049   1.411       .  A
C1048      H1053   1.084       .  S
C1049      C1050   1.416       .  A
C1049      N1054   1.437       .  S
C1050      C1051   1.406       .  A
C1051      C1052   1.406       .  A
C1051      H1055   1.084       .  S
C1052      N1056   1.438       .  S
N1054      H1057   1.045       .  S
N1054      H1058   1.045       .  S
N1056      H1059   1.045       .  S
N1056      H1060   1.045       .  S
C1065      C1066   1.418       .  A
C1065      C1070   1.406       .  A
C1066      C1067   1.408       .  A
C1066      N1071   1.438       .  S
C1067      C1068   1.402       .  A
C1067      H1072   1.084       .  S
C1068      C1069   1.409       .  A
C1068      C1073   1.485       .  S
C1069      C1070   1.405       .  A
C1069      N1074   1.438       .  S
C1070      H1075   1.083       .  S
N1071      H1091   1.046       .  S
N1071      H1092   1.045       .  S
C1073      C1076   1.400       .  A
C1073      C1080   1.409       .  A
N1074      H1089   1.045       .  S
N1074      H1090   1.046       .  S
C1076      C1077   1.405       .  A
C1076      H1081   1.084       .  S
C1077      C1078   1.418       .  A
C1077      N1082   1.438       .  S
C1078      C1079   1.407       .  A
C1079      C1080   1.408       .  A
C1079      H1083   1.083       .  S
C1080      N1084   1.438       .  S
N1082      H1085   1.046       .  S
N1082      H1086   1.045       .  S
N1084      H1087   1.046       .  S
N1084      H1088   1.046       .  S
C1093      C1094   1.415       .  A
C1093      C1098   1.408       .  A
C1094      C1095   1.408       .  A
C1094      N1099   1.438       .  S
C1095      C1096   1.403       .  A
C1095      H1100   1.084       .  S
C1096      C1097   1.409       .  A
C1096      C1101   1.488       .  S
C1097      C1098   1.407       .  A
C1097      N1102   1.438       .  S
C1098      H1103   1.083       .  S
N1099      H1119   1.046       .  S
N1099      H1120   1.045       .  S
C1101      C1104   1.404       .  A
C1101      C1108   1.408       .  A
N1102      H1117   1.046       .  S
N1102      H1118   1.046       .  S
C1104      C1105   1.409       .  A
C1104      H1109   1.084       .  S
C1105      C1106   1.417       .  A
C1105      N1110   1.437       .  S
C1106      C1107   1.409       .  A
C1107      C1108   1.405       .  A
C1107      H1111   1.083       .  S
C1108      N1112   1.438       .  S
N1110      H1113   1.046       .  S
N1110      H1114   1.046       .  S
N1112      H1115   1.046       .  S
N1112      H1116   1.046       .  S
C1121      C1122   1.415       .  A
C1121      C1126   1.405       .  A
C1122      C1123   1.410       .  A
C1122      N1127   1.438       .  S
C1123      C1124   1.404       .  A
C1123      H1128   1.084       .  S
C1124      C1125   1.411       .  A
C1124      C1129   1.490       .  S
C1125      C1126   1.405       .  A
C1125      N1130   1.438       .  S
C1126      H1131   1.084       .  S
N1127      H1147   1.046       .  S
N1127      H1148   1.046       .  S
C1129      C1132   1.403       .  A
C1129      C1136   1.412       .  A
N1130      H1145   1.046       .  S
N1130      H1146   1.045       .  S
C1132      C1133   1.405       .  A
C1132      H1137   1.084       .  S
C1133      C1134   1.413       .  A
C1133      N1138   1.438       .  S
C1134      C1135   1.405       .  A
C1135      C1136   1.410       .  A
C1135      H1139   1.084       .  S
C1136      N1140   1.437       .  S
N1138      H1141   1.045       .  S
N1138      H1142   1.046       .  S
N1140      H1143   1.046       .  S
N1140      H1144   1.046       .  S
C1149      C1150   1.414       .  A
C1149      C1154   1.406       .  A
C1150      C1151   1.407       .  A
C1150      N1155   1.438       .  S
C1151      C1152   1.404       .  A
C1151      H1156   1.084       .  S
C1152      C1153   1.410       .  A
C1152      C1157   1.487       .  S
C1153      C1154   1.406       .  A
C1153      N1158   1.438       .  S
C1154      H1159   1.084       .  S
N1155      H1175   1.046       .  S
N1155      H1176   1.046       .  S
C1157      C1160   1.404       .  A
C1157      C1164   1.410       .  A
N1158      H1173   1.046       .  S
N1158      H1174   1.045       .  S
C1160      C1161   1.407       .  A
C1160      H1165   1.084       .  S
C1161      C1162   1.414       .  A
C1161      N1166   1.438       .  S
C1162      C1163   1.405       .  A
C1163      C1164   1.405       .  A
C1163      H1167   1.084       .  S
C1164      N1168   1.438       .  S
N1166      H1169   1.046       .  S
N1166      H1170   1.045       .  S
N1168      H1171   1.046       .  S
N1168      H1172   1.046       .  S
C1177      C1178   1.417       .  A
C1177      C1182   1.406       .  A
C1178      C1179   1.411       .  A
C1178      N1183   1.437       .  S
C1179      C1180   1.405       .  A
C1179      H1184   1.083       .  S
C1180      C1181   1.409       .  A
C1180      C1185   1.489       .  S
C1181      C1182   1.401       .  A
C1181      N1186   1.438       .  S
C1182      H1187   1.083       .  S
N1183      H1203   1.045       .  S
N1183      H1204   1.046       .  S
C1185      C1188   1.404       .  A
C1185      C1192   1.412       .  A
N1186      H1201   1.046       .  S
N1186      H1202   1.045       .  S
C1188      C1189   1.403       .  A
C1188      H1193   1.084       .  S
C1189      C1190   1.410       .  A
C1189      N1194   1.438       .  S
C1190      C1191   1.404       .  A
C1191      C1192   1.408       .  A
C1191      H1195   1.084       .  S
C1192      N1196   1.437       .  S
N1194      H1197   1.046       .  S
N1194      H1198   1.045       .  S
N1196      H1199   1.046       .  S
N1196      H1200   1.045       .  S
C1205      C1206   1.411       .  A
C1205      C1210   1.406       .  A
C1206      C1207   1.408       .  A
C1206      N1211   1.437       .  S
C1207      C1208   1.405       .  A
C1207      H1212   1.084       .  S
C1208      C1209   1.409       .  A
C1208      C1213   1.485       .  S
C1209      C1210   1.403       .  A
C1209      N1214   1.438       .  S
C1210      H1215   1.082       .  S
N1211      H1231   1.047       .  S
N1211      H1232   1.045       .  S
C1213      C1216   1.402       .  A
C1213      C1220   1.409       .  A
N1214      H1229   1.045       .  S
N1214      H1230   1.045       .  S
C1216      C1217   1.407       .  A
C1216      H1221   1.084       .  S
C1217      C1218   1.418       .  A
C1217      N1222   1.438       .  S
C1218      C1219   1.407       .  A
C1219      C1220   1.405       .  A
C1219      H1223   1.083       .  S
C1220      N1224   1.438       .  S
N1222      H1225   1.045       .  S
N1222      H1226   1.046       .  S
N1224      H1227   1.045       .  S
N1224      H1228   1.046       .  S
C1233      C1234   1.413       .  A
C1233      C1238   1.407       .  A
C1234      C1235   1.403       .  A
C1234      N1239   1.438       .  S
C1235      C1236   1.400       .  A
C1235      H1240   1.084       .  S
C1236      C1237   1.409       .  A
C1236      C1241   1.481       .  S
C1237      C1238   1.409       .  A
C1237      N1242   1.437       .  S
C1238      H1243   1.084       .  S
N1239      H1259   1.046       .  S
N1239      H1260   1.046       .  S
C1241      C1244   1.400       .  A
C1241      C1248   1.406       .  A
N1242      H1257   1.046       .  S
N1242      H1258   1.045       .  S
C1244      C1245   1.409       .  A
C1244      H1249   1.084       .  S
C1245      C1246   1.420       .  A
C1245      N1250   1.437       .  S
C1246      C1247   1.409       .  A
C1247      C1248   1.403       .  A
C1247      H1251   1.083       .  S
C1248      N1252   1.438       .  S
N1250      H1253   1.046       .  S
N1250      H1254   1.044       .  S
N1252      H1255   1.046       .  S
N1252      H1256   1.044       .  S
C1261      C1262   1.415       .  A
C1261      C1266   1.406       .  A
C1262      C1263   1.407       .  A
C1262      N1267   1.438       .  S
C1263      C1264   1.404       .  A
C1263      H1268   1.084       .  S
C1264      C1265   1.410       .  A
C1264      C1269   1.490       .  S
C1265      C1266   1.407       .  A
C1265      N1270   1.438       .  S
C1266      H1271   1.084       .  S
N1267      H1287   1.046       .  S
N1267      H1288   1.046       .  S
C1269      C1272   1.404       .  A
C1269      C1276   1.410       .  A
N1270      H1285   1.046       .  S
N1270      H1286   1.045       .  S
C1272      C1273   1.408       .  A
C1272      H1277   1.084       .  S
C1273      C1274   1.415       .  A
C1273      N1278   1.438       .  S
C1274      C1275   1.406       .  A
C1275      C1276   1.406       .  A
C1275      H1279   1.084       .  S
C1276      N1280   1.438       .  S
N1278      H1281   1.046       .  S
N1278      H1282   1.046       .  S
N1280      H1283   1.045       .  S
N1280      H1284   1.046       .  S
C1289      C1290   1.414       .  A
C1289      C1294   1.407       .  A
C1290      C1291   1.405       .  A
C1290      N1295   1.438       .  S
C1291      C1292   1.400       .  A
C1291      H1296   1.084       .  S
C1292      C1293   1.409       .  A
C1292      C1297   1.479       .  S
C1293      C1294   1.407       .  A
C1293      N1298   1.438       .  S
C1294      H1299   1.084       .  S
N1295      H1315   1.045       .  S
N1295      H1316   1.046       .  S
C1297      C1300   1.402       .  A
C1297      C1304   1.408       .  A
N1298      H1313   1.047       .  S
N1298      H1314   1.043       .  S
C1300      C1301   1.410       .  A
C1300      H1305   1.084       .  S
C1301      C1302   1.415       .  A
C1301      N1306   1.438       .  S
C1302      C1303   1.405       .  A
C1303      C1304   1.402       .  A
C1303      H1307   1.084       .  S
C1304      N1308   1.439       .  S
N1306      H1309   1.046       .  S
N1306      H1310   1.046       .  S
N1308      H1311   1.046       .  S
N1308      H1312   1.044       .  S
C1317      C1318   1.412       .  A
C1317      C1322   1.407       .  A
C1318      C1319   1.400       .  A
C1318      N1323   1.433       .  S
C1319      C1320   1.399       .  A
C1319      H1324   1.084       .  S
C1320      C1321   1.409       .  A
C1320      C1325   1.476       .  S
C1321      C1322   1.408       .  A
C1321      N1326   1.438       .  S
C1322      H1327   1.083       .  S
N1323      H1343   1.043       .  S
N1323      H1344   1.048       .  S
C1325      C1328   1.401       .  A
C1325      C1332   1.408       .  A
N1326      H1341   1.046       .  S
N1326      H1342   1.044       .  S
C1328      C1329   1.406       .  A
C1328      H1333   1.084       .  S
C1329      C1330   1.412       .  A
C1329      N1334   1.437       .  S
C1330      C1331   1.405       .  A
C1331      C1332   1.404       .  A
C1331      H1335   1.084       .  S
C1332      N1336   1.438       .  S
N1334      H1337   1.045       .  S
N1334      H1338   1.046       .  S
N1336      H1339   1.046       .  S
N1336      H1340   1.044       .  S
C1345      C1346   1.416       .  A
C1345      C1350   1.407       .  A
C1346      C1347   1.409       .  A
C1346      N1351   1.438       .  S
C1347      C1348   1.401       .  A
C1347      H1352   1.084       .  S
C1348      C1349   1.408       .  A
C1348      C1353   1.483       .  S
C1349      C1350   1.406       .  A
C1349      N1354   1.438       .  S
C1350      H1355   1.083       .  S
N1351      H1371   1.046       .  S
N1351      H1372   1.045       .  S
C1353      C1356   1.401       .  A
C1353      C1360   1.409       .  A
N1354      H1369   1.045       .  S
N1354      H1370   1.046       .  S
C1356      C1357   1.406       .  A
C1356      H1361   1.084       .  S
C1357      C1358   1.414       .  A
C1357      N1362   1.438       .  S
C1358      C1359   1.405       .  A
C1359      C1360   1.410       .  A
C1359      H1363   1.084       .  S
C1360      N1364   1.437       .  S
N1362      H1365   1.046       .  S
N1362      H1366   1.046       .  S
N1364      H1367   1.046       .  S
N1364      H1368   1.045       .  S
C1373      C1374   1.415       .  A
C1373      C1378   1.404       .  A
C1374      C1375   1.404       .  A
C1374      N1379   1.438       .  S
C1375      C1376   1.401       .  A
C1375      H1380   1.084       .  S
C1376      C1377   1.410       .  A
C1376      C1381   1.484       .  S
C1377      C1378   1.407       .  A
C1377      N1382   1.437       .  S
C1378      H1383   1.084       .  S
N1379      H1399   1.045       .  S
N1379      H1400   1.046       .  S
C1381      C1384   1.400       .  A
C1381      C1388   1.408       .  A
N1382      H1397   1.046       .  S
N1382      H1398   1.045       .  S
C1384      C1385   1.406       .  A
C1384      H1389   1.084       .  S
C1385      C1386   1.420       .  A
C1385      N1390   1.438       .  S
C1386      C1387   1.410       .  A
C1387      C1388   1.406       .  A
C1387      H1391   1.083       .  S
C1388      N1392   1.438       .  S
N1390      H1393   1.045       .  S
N1390      H1394   1.046       .  S
N1392      H1395   1.045       .  S
N1392      H1396   1.046       .  S
C1401      C1402   1.416       .  A
C1401      C1406   1.407       .  A
C1402      C1403   1.407       .  A
C1402      N1407   1.438       .  S
C1403      C1404   1.400       .  A
C1403      H1408   1.084       .  S
C1404      C1405   1.405       .  A
C1404      C1409   1.474   1_565  S
C1405      C1406   1.402       .  A
C1405      N1410   1.438       .  S
C1406      H1411   1.083       .  S
N1407      H1427   1.045       .  S
N1407      H1428   1.045       .  S
C1409      C1412   1.401       .  A
C1409      C1416   1.407       .  A
N1410      H1425   1.043       .  S
N1410      H1426   1.046       .  S
C1412      C1413   1.406       .  A
C1412      H1417   1.084       .  S
C1413      C1414   1.413       .  A
C1413      N1418   1.437       .  S
C1414      C1415   1.405       .  A
C1415      C1416   1.402       .  A
C1415      H1419   1.084       .  S
C1416      N1420   1.438       .  S
N1418      H1421   1.046       .  S
N1418      H1422   1.045       .  S
N1420      H1423   1.045       .  S
N1420      H1424   1.046       .  S
C1429      C1430   1.413       .  A
C1429      C1434   1.405       .  A
C1430      C1431   1.409       .  A
C1430      N1435   1.437       .  S
C1431      C1432   1.404       .  A
C1431      H1436   1.084       .  S
C1432      C1433   1.408       .  A
C1432      C1437   1.482       .  S
C1433      C1434   1.402       .  A
C1433      N1438   1.438       .  S
C1434      H1439   1.084       .  S
N1435      H1455   1.045       .  S
N1435      H1456   1.046       .  S
C1437      C1440   1.400       .  A
C1437      C1444   1.408       .  A
N1438      H1453   1.046       .  S
N1438      H1454   1.045       .  S
C1440      C1441   1.407       .  A
C1440      H1445   1.084       .  S
C1441      C1442   1.419       .  A
C1441      N1446   1.438       .  S
C1442      C1443   1.408       .  A
C1443      C1444   1.406       .  A
C1443      H1447   1.083       .  S
C1444      N1448   1.438       .  S
N1446      H1449   1.045       .  S
N1446      H1450   1.046       .  S
N1448      H1451   1.046       .  S
N1448      H1452   1.046       .  S
C1457      C1458   1.417       .  A
C1457      C1462   1.407       .  A
C1458      C1459   1.405       .  A
C1458      N1463   1.438       .  S
C1459      C1460   1.400       .  A
C1459      H1464   1.084       .  S
C1460      C1461   1.407       .  A
C1460      C1465   1.478       .  S
C1461      C1462   1.405       .  A
C1461      N1466   1.438       .  S
C1462      H1467   1.084       .  S
N1463      H1483   1.045       .  S
N1463      H1484   1.045       .  S
C1465      C1468   1.401       .  A
C1465      C1472   1.410       .  A
N1466      H1481   1.045       .  S
N1466      H1482   1.046       .  S
C1468      C1469   1.400       .  A
C1468      H1473   1.084       .  S
C1469      C1470   1.408       .  A
C1469      N1474   1.433       .  S
C1470      C1471   1.403       .  A
C1471      C1472   1.406       .  A
C1471      H1475   1.084       .  S
C1472      N1476   1.437       .  S
N1474      H1477   1.047       .  S
N1474      H1478   1.045       .  S
N1476      H1479   1.046       .  S
N1476      H1480   1.045       .  S
C1485      C1486   1.413       .  A
C1485      C1490   1.405       .  A
C1486      C1487   1.405       .  A
C1486      N1491   1.438       .  S
C1487      C1488   1.402       .  A
C1487      H1492   1.084       .  S
C1488      C1489   1.411       .  A
C1488      C1493   1.484   1_655  S
C1489      C1490   1.407       .  A
C1489      N1494   1.438       .  S
C1490      H1495   1.084       .  S
N1491      H1511   1.045       .  S
N1491      H1512   1.046       .  S
C1493      C1496   1.403       .  A
C1493      C1500   1.412       .  A
N1494      H1509   1.045       .  S
N1494      H1510   1.047       .  S
C1496      C1497   1.405       .  A
C1496      H1501   1.084       .  S
C1497      C1498   1.410       .  A
C1497      N1502   1.438       .  S
C1498      C1499   1.402       .  A
C1499      C1500   1.407       .  A
C1499      H1503   1.084       .  S
C1500      N1504   1.438       .  S
N1502      H1505   1.045       .  S
N1502      H1506   1.046       .  S
N1504      H1507   1.046       .  S
N1504      H1508   1.044       .  S
C1513      C1514   1.415       .  A
C1513      C1518   1.405       .  A
C1514      C1515   1.410       .  A
C1514      N1519   1.438       .  S
C1515      C1516   1.403       .  A
C1515      H1520   1.084       .  S
C1516      C1517   1.408       .  A
C1516      C1521   1.481       .  S
C1517      C1518   1.404       .  A
C1517      N1522   1.438       .  S
C1518      H1523   1.084       .  S
N1519      H1539   1.047       .  S
N1519      H1540   1.044       .  S
C1521      C1524   1.400       .  A
C1521      C1528   1.411       .  A
N1522      H1537   1.044       .  S
N1522      H1538   1.047       .  S
C1524      C1525   1.401       .  A
C1524      H1529   1.084       .  S
C1525      C1526   1.410       .  A
C1525      N1530   1.432       .  S
C1526      C1527   1.406       .  A
C1527      C1528   1.412       .  A
C1527      H1531   1.084       .  S
C1528      N1532   1.438       .  S
N1530      H1533   1.046       .  S
N1530      H1534   1.045       .  S
N1532      H1535   1.047       .  S
N1532      H1536   1.043       .  S
C1541      C1542   1.417       .  A
C1541      C1546   1.408       .  A
C1542      C1543   1.407       .  A
C1542      N1547   1.438       .  S
C1543      C1544   1.399       .  A
C1543      H1548   1.084       .  S
C1544      C1545   1.408       .  A
C1544      C1549   1.478       .  S
C1545      C1546   1.405       .  A
C1545      N1550   1.439       .  S
C1546      H1551   1.083       .  S
N1547      H1567   1.046       .  S
N1547      H1568   1.044       .  S
C1549      C1552   1.401       .  A
C1549      C1556   1.407       .  A
N1550      H1565   1.045       .  S
N1550      H1566   1.045       .  S
C1552      C1553   1.406       .  A
C1552      H1557   1.084       .  S
C1553      C1554   1.414       .  A
C1553      N1558   1.438       .  S
C1554      C1555   1.406       .  A
C1555      C1556   1.406       .  A
C1555      H1559   1.084       .  S
C1556      N1560   1.438       .  S
N1558      H1561   1.046       .  S
N1558      H1562   1.045       .  S
N1560      H1563   1.046       .  S
N1560      H1564   1.044       .  S
C1569      C1570   1.414   1_566  A
C1569      C1574   1.405       .  A
C1570      C1571   1.403       .  A
C1570      N1575   1.438       .  S
C1571      C1572   1.401   1_544  A
C1571      H1576   1.084       .  S
C1572      C1573   1.409       .  A
C1572      C1577   1.481       .  S
C1573      C1574   1.407       .  A
C1573      N1578   1.437       .  S
C1574      H1579   1.084       .  S
N1575      H1595   1.046       .  S
N1575      H1596   1.045       .  S
C1577      C1580   1.403   1_556  A
C1577      C1584   1.409   1_565  A
N1578      H1593   1.046       .  S
N1578      H1594   1.046       .  S
C1580      C1581   1.407       .  A
C1580      H1585   1.084       .  S
C1581      C1582   1.413   1_564  A
C1581      N1586   1.438       .  S
C1582      C1583   1.403       .  A
C1583      C1584   1.403       .  A
C1583      H1587   1.084       .  S
C1584      N1588   1.438       .  S
N1586      H1589   1.045       .  S
N1586      H1590   1.044       .  S
N1588      H1591   1.045       .  S
N1588      H1592   1.046       .  S
C1597      C1598   1.413       .  A
C1597      C1602   1.405   1_545  A
C1598      C1599   1.402       .  A
C1598      N1603   1.433       .  S
C1599      C1600   1.399       .  A
C1599      H1604   1.084       .  S
C1600      C1601   1.411   1_545  A
C1600      C1605   1.481       .  S
C1601      C1602   1.410       .  A
C1601      N1606   1.438       .  S
C1602      H1607   1.083       .  S
N1603      H1623   1.044       .  S
N1603      H1624   1.048       .  S
C1605      C1608   1.400       .  A
C1605      C1612   1.409   1_545  A
N1606      H1621   1.044       .  S
N1606      H1622   1.046       .  S
C1608      C1609   1.408       .  A
C1608      H1613   1.084       .  S
C1609      C1610   1.417       .  A
C1609      N1614   1.438       .  S
C1610      C1611   1.406   1_545  A
C1611      C1612   1.406       .  A
C1611      H1615   1.084       .  S
C1612      N1616   1.438       .  S
N1614      H1617   1.045       .  S
N1614      H1618   1.046       .  S
N1616      H1619   1.045       .  S
N1616      H1620   1.045       .  S
C1625      C1626   1.412   1_545  A
C1625      C1630   1.405       .  A
C1626      C1627   1.410       .  A
C1626      N1631   1.437       .  S
C1627      C1628   1.405   1_565  A
C1627      H1632   1.084       .  S
C1628      C1629   1.410       .  A
C1628      C1633   1.487       .  S
C1629      C1630   1.405       .  A
C1629      N1634   1.438       .  S
C1630      H1635   1.084       .  S
N1631      H1651   1.046       .  S
N1631      H1652   1.045       .  S
C1633      C1636   1.401       .  A
C1633      C1640   1.411   1_545  A
N1634      H1649   1.047       .  S
N1634      H1650   1.045       .  S
C1636      C1637   1.403       .  A
C1636      H1641   1.084       .  S
C1637      C1638   1.417       .  A
C1637      N1642   1.433       .  S
C1638      C1639   1.407   1_545  A
C1639      C1640   1.408       .  A
C1639      H1643   1.083       .  S
C1640      N1644   1.438       .  S
N1642      H1645   1.046       .  S
N1642      H1646   1.045       .  S
N1644      H1647   1.045       .  S
N1644      H1648   1.046       .  S
C1653      C1654   1.414   1_455  A
C1653      C1658   1.407   1_556  A
C1654      C1655   1.406       .  A
C1654      N1659   1.438       .  S
C1655      C1656   1.400   1_655  A
C1655      H1660   1.084       .  S
C1656      C1657   1.407   1_556  A
C1656      C1661   1.477       .  S
C1657      C1658   1.404       .  A
C1657      N1662   1.438       .  S
C1658      H1663   1.084       .  S
N1659      H1679   1.046       .  S
N1659      H1680   1.045       .  S
C1661      C1664   1.400   1_456  A
C1661      C1668   1.406       .  A
N1662      H1677   1.044       .  S
N1662      H1678   1.047       .  S
C1664      C1665   1.406       .  A
C1664      H1669   1.084       .  S
C1665      C1666   1.415       .  A
C1665      N1670   1.438       .  S
C1666      C1667   1.407   1_654  A
C1667      C1668   1.405       .  A
C1667      H1671   1.083       .  S
C1668      N1672   1.438       .  S
N1670      H1673   1.046       .  S
N1670      H1674   1.046       .  S
N1672      H1675   1.044       .  S
N1672      H1676   1.046       .  S
C1681      C1682   1.412       .  A
C1681      C1686   1.402   1_655  A
C1682      C1683   1.409       .  A
C1682      N1687   1.438       .  S
C1683      C1684   1.406       .  A
C1683      H1688   1.083       .  S
C1684      C1685   1.412   1_655  A
C1684      C1689   1.489       .  S
C1685      C1686   1.401       .  A
C1685      N1690   1.438       .  S
C1686      H1691   1.084       .  S
N1687      H1707   1.046       .  S
N1687      H1708   1.046       .  S
C1689      C1692   1.403   1_655  A
C1689      C1696   1.410       .  A
N1690      H1705   1.046       .  S
N1690      H1706   1.045       .  S
C1692      C1693   1.406       .  A
C1692      H1697   1.084       .  S
C1693      C1694   1.416   1_455  A
C1693      N1698   1.438       .  S
C1694      C1695   1.409       .  A
C1695      C1696   1.407       .  A
C1695      H1699   1.083       .  S
C1696      N1700   1.438       .  S
N1698      H1701   1.045       .  S
N1698      H1702   1.046       .  S
N1700      H1703   1.046       .  S
N1700      H1704   1.045       .  S
C1709      C1710   1.418   1_455  A
C1709      C1714   1.408       .  A
C1710      C1711   1.405       .  A
C1710      N1715   1.438       .  S
C1711      C1712   1.400   1_655  A
C1711      H1716   1.084       .  S
C1712      C1713   1.409       .  A
C1712      C1717   1.485       .  S
C1713      C1714   1.407       .  A
C1713      N1718   1.438       .  S
C1714      H1719   1.082       .  S
N1715      H1735   1.047       .  S
N1715      H1736   1.044       .  S
C1717      C1720   1.403       .  A
C1717      C1724   1.410   1_455  A
N1718      H1733   1.045       .  S
N1718      H1734   1.046       .  S
C1720      C1721   1.407       .  A
C1720      H1725   1.084       .  S
C1721      C1722   1.414       .  A
C1721      N1726   1.438       .  S
C1722      C1723   1.404   1_455  A
C1723      C1724   1.404       .  A
C1723      H1727   1.084       .  S
C1724      N1728   1.438       .  S
N1726      H1729   1.045       .  S
N1726      H1730   1.045       .  S
N1728      H1731   1.046       .  S
N1728      H1732   1.045       .  S
