geometry optimzed in LAMMPS
_audit_creation_date              2020-11-30 
_audit_creation_method            'lammps2cif' 
_symmetry_space_group_name_H-M    'P1' 
_symmetry_Int_Tables_number       1 
_symmetry_cell_setting            triclinic 
loop_ 
_symmetry_equiv_pos_as_xyz 
  x,y,z 
_cell_length_a                    88.09511407 
_cell_length_b                    88.03444685769021 
_cell_length_c                    87.98219523232817 
_cell_angle_alpha                 89.97525451699612 
_cell_angle_beta                  89.94644517637072 
_cell_angle_gamma                 89.92341312858028 
loop_ 
_atom_site_label 
_atom_site_type_symbol 
_atom_site_fract_x 
_atom_site_fract_y 
_atom_site_fract_z 
_atom_site_charge 
N1          N  0.66587473  0.83336883  0.82581922    -0.26500
N2          N  0.66623517  0.81960232  0.81982465    -0.34400
C3          C  0.66795098  0.82073510  0.80469812     0.01800
C4          C  0.66866087  0.83594062  0.80090861     0.07900
C5          C  0.66723842  0.84367213  0.81456249    -0.05200
H6          H  0.66873714  0.81116994  0.79701909     0.08500
H7          H  0.66747504  0.85584574  0.81621128     0.09700
Cu8        Cu  0.66549851  0.79973952  0.83231672     0.44200
Cu9        Cu  0.66458567  0.83714651  0.84916577     0.42000
Cu10       Cu  0.66865925  0.80309792  0.87276469     0.43900
N11         N  0.66887243  0.78136622  0.84652094    -0.33900
N12         N  0.67053200  0.78259992  0.86138486    -0.28100
C13         C  0.67444563  0.76897626  0.86710167    -0.04200
C14         C  0.67528883  0.75867557  0.85522687     0.08000
C15         C  0.67157206  0.76693646  0.84236771     0.01800
H16         H  0.67716311  0.76689238  0.87890779     0.09400
H17         H  0.67146488  0.76291851  0.83075002     0.08500
N18         N  0.66662093  0.82493001  0.88129051    -0.35300
N19         N  0.66505129  0.83727320  0.87284549    -0.27500
C20         C  0.66421455  0.84945910  0.88204877    -0.02800
C21         C  0.66530812  0.84453270  0.89696523     0.05900
C22         C  0.66682961  0.82892880  0.89602810     0.03900
H23         H  0.66292230  0.86104994  0.87816718     0.09100
H24         H  0.66817170  0.82105396  0.90537695     0.07900
N25         N  0.70098143  0.87007931  0.66372015    -0.26500
N26         N  0.70713176  0.87141973  0.67734083    -0.34400
C27         C  0.72231677  0.87122875  0.67590443     0.01800
C28         C  0.72588953  0.86952095  0.66065481     0.07900
C29         C  0.71205693  0.86892228  0.65325919    -0.05200
H30         H  0.73016629  0.87141436  0.68534993     0.08500
H31         H  0.71016404  0.86683975  0.64129310     0.09700
Cu32       Cu  0.69473252  0.87041501  0.69739549     0.44200
Cu33       Cu  0.67795297  0.86789610  0.66025279     0.42000
Cu34       Cu  0.65466755  0.86147694  0.69367073     0.43900
N35         N  0.68098323  0.86418530  0.71553601    -0.33900
N36         N  0.66654104  0.86039071  0.71410006    -0.28100
C37         C  0.66131787  0.85560458  0.72765395    -0.04200
C38         C  0.67298012  0.85651933  0.73820642     0.08000
C39         C  0.68527064  0.86205220  0.73006072     0.01800
H40         H  0.64993136  0.85145162  0.72960416     0.09400
H41         H  0.69658318  0.86419056  0.73431088     0.08500
N42         N  0.64608672  0.86311779  0.67168765    -0.35300
N43         N  0.65472761  0.86524693  0.65957284    -0.27500
C44         C  0.64598384  0.86548863  0.64708766    -0.02800
C45         C  0.63110330  0.86349033  0.65151725     0.05900
C46         C  0.63153098  0.86205972  0.66718287     0.03900
H47         H  0.65016158  0.86708841  0.63562376     0.09100
H48         H  0.62198639  0.86023202  0.67471781     0.07900
N49         N  0.86143727  0.63160302  0.83531868    -0.26500
N50         N  0.85584977  0.63324721  0.82147118    -0.34400
C51         C  0.84061954  0.63381545  0.82230405     0.01800
C52         C  0.83631112  0.63240504  0.83739127     0.07900
C53         C  0.84985635  0.63102851  0.84532113    -0.05200
H54         H  0.83321223  0.63535612  0.81262423     0.08500
H55         H  0.85120657  0.62963026  0.85745980     0.09700
Cu56       Cu  0.86904501  0.63500748  0.80195862     0.44200
Cu57       Cu  0.88461243  0.63027879  0.83984402     0.42000
Cu58       Cu  0.90938198  0.63165879  0.80661324     0.43900
N59         N  0.88443768  0.63778094  0.78427188    -0.33900
N60         N  0.89927226  0.63641284  0.78597589    -0.28100
C61         C  0.90616937  0.63961217  0.77271281    -0.04200
C62         C  0.89513072  0.64327220  0.76212373     0.08000
C63         C  0.88148735  0.64195820  0.76987258     0.01800
H64         H  0.91833016  0.63958293  0.77101233     0.09400
H65         H  0.87026562  0.64435956  0.76550101     0.08500
N66         N  0.91702517  0.62873185  0.82861423    -0.35300
N67         N  0.90817769  0.62849227  0.84077004    -0.27500
C68         C  0.91692713  0.62687201  0.85321063    -0.02800
C69         C  0.93194190  0.62599113  0.84859961     0.05900
C70         C  0.93155985  0.62722357  0.83295827     0.03900
H71         H  0.91268264  0.62635662  0.86474133     0.09100
H72         H  0.94117465  0.62726954  0.82529710     0.07900
N73         N  0.70004345  0.67181942  0.86170969    -0.26500
N74         N  0.71394469  0.67745369  0.86124981    -0.34400
C75         C  0.71306769  0.69262800  0.85974628     0.01800
C76         C  0.69789638  0.69674087  0.85916993     0.07900
C77         C  0.68997368  0.68323572  0.86041940    -0.05200
H78         H  0.72277072  0.70012569  0.85918298     0.08500
H79         H  0.67778438  0.68178420  0.86036683     0.09700
Cu80       Cu  0.73356937  0.66436399  0.86212648     0.44200
Cu81       Cu  0.69517407  0.64898152  0.86443012     0.42000
Cu82       Cu  0.72783570  0.62405322  0.86567599     0.43900
N83         N  0.75114355  0.64863176  0.86107014    -0.33900
N84         N  0.74903217  0.63381767  0.86224633    -0.28100
C85         C  0.76239335  0.62668067  0.86012055    -0.04200
C86         C  0.77347805  0.63752635  0.85743278     0.08000
C87         C  0.76589609  0.65131447  0.85816027     0.01800
H88         H  0.76386147  0.61448035  0.86022138     0.09400
H89         H  0.77065695  0.66245550  0.85613935     0.08500
N90         N  0.70557821  0.61669572  0.86827723    -0.35300
N91         N  0.69360900  0.62575935  0.86779624    -0.27500
C92         C  0.68092886  0.61736964  0.86930933    -0.02800
C93         C  0.68514132  0.60228872  0.87074942     0.05900
C94         C  0.70083974  0.60230589  0.87008205     0.03900
H95         H  0.66949716  0.62185706  0.86890529     0.09100
H96         H  0.70826721  0.59252083  0.87054836     0.07900
N97         N  0.85925759  0.82596777  0.63129084    -0.26500
N98         N  0.84554621  0.82030965  0.62903893    -0.34400
C99         C  0.84638773  0.80506859  0.62919970     0.01800
C100        C  0.86133039  0.80092161  0.63175524     0.07900
C101        C  0.86917825  0.81446898  0.63298641    -0.05200
H102        H  0.83675460  0.79756430  0.62795994     0.08500
H103        H  0.88113259  0.81587711  0.63538839     0.09700
Cu104      Cu  0.82600018  0.83334363  0.62749883     0.44200
Cu105      Cu  0.86390203  0.84900282  0.63242742     0.42000
Cu106      Cu  0.83148310  0.87386850  0.62903331     0.43900
N107        N  0.80837387  0.84873593  0.63009879    -0.33900
N108        N  0.81043168  0.86358602  0.63077869    -0.28100
C109        C  0.79720608  0.87031342  0.63438563    -0.04200
C110        C  0.78628344  0.85916693  0.63611760     0.08000
C111        C  0.79376225  0.84561650  0.63323527     0.01800
H112        H  0.79585300  0.88234523  0.63649356     0.09400
H113        H  0.78911469  0.83427969  0.63409277     0.08500
N114        N  0.85369701  0.88150308  0.62969316    -0.35300
N115        N  0.86556318  0.87245031  0.63136810    -0.27500
C116        C  0.87827722  0.88089713  0.63150780    -0.02800
C117        C  0.87418913  0.89597291  0.62975840     0.05900
C118        C  0.85853015  0.89593980  0.62864821     0.03900
H119        H  0.88966234  0.87637312  0.63244280     0.09100
H120        H  0.85119361  0.90568860  0.62713814     0.07900
N121        N  0.90073458  0.66802479  0.67505268    -0.26500
N122        N  0.89894275  0.68183054  0.68070561    -0.34400
C123        C  0.89892180  0.68097970  0.69597637     0.01800
C124        C  0.90084226  0.66592892  0.70018922     0.07900
C125        C  0.90203840  0.65807434  0.68658651    -0.05200
H126        H  0.89707514  0.69055491  0.70346071     0.08500
H127        H  0.90338476  0.64594497  0.68514971     0.09700
Cu128      Cu  0.89575846  0.70116519  0.66751367     0.44200
Cu129      Cu  0.90015286  0.66297539  0.65196184     0.42000
Cu130      Cu  0.89580193  0.69516306  0.62696038     0.43900
N131        N  0.89179003  0.71830098  0.65175245    -0.33900
N132        N  0.89177461  0.71603850  0.63690491    -0.28100
C133        C  0.88771956  0.72896891  0.62984898    -0.04200
C134        C  0.88505480  0.73994545  0.64077529     0.08000
C135        C  0.88781216  0.73278722  0.65453666     0.01800
H136        H  0.88617707  0.73009435  0.61770315     0.09400
H137        H  0.88654479  0.73761842  0.66577178     0.08500
N138        N  0.89768221  0.67303786  0.61935477    -0.35300
N139        N  0.89893659  0.66112918  0.62841872    -0.27500
C140        C  0.89889336  0.64842368  0.61989336    -0.02800
C141        C  0.89755132  0.65258418  0.60474522     0.05900
C142        C  0.89689206  0.66828433  0.60487517     0.03900
H143        H  0.89943086  0.63700252  0.62440397     0.09100
H144        H  0.89565041  0.67572577  0.59516670     0.07900
N145        N  0.86127045  0.16968764  0.63240887    -0.26500
N146        N  0.84757149  0.17509678  0.63529224    -0.34400
C147        C  0.84831181  0.19027779  0.63645790     0.01800
C148        C  0.86319731  0.19465672  0.63415766     0.07900
C149        C  0.87112127  0.18131232  0.63160966    -0.05200
H150        H  0.83875571  0.19756516  0.63905103     0.08500
H151        H  0.88315334  0.18011890  0.62944816     0.09700
Cu152      Cu  0.82853915  0.16171972  0.63784582     0.44200
Cu153      Cu  0.86590689  0.14675793  0.63025519     0.42000
Cu154      Cu  0.83330053  0.12144798  0.63202215     0.43900
N155        N  0.81112900  0.14624736  0.64010234    -0.33900
N156        N  0.81270371  0.13150014  0.63778636    -0.28100
C157        C  0.79942010  0.12460728  0.64084345    -0.04200
C158        C  0.78903828  0.13557124  0.64536225     0.08000
C159        C  0.79688809  0.14914401  0.64472922     0.01800
H160        H  0.79757847  0.11247980  0.64019631     0.09400
H161        H  0.79272193  0.16025981  0.64792853     0.08500
N162        N  0.85559607  0.11416998  0.62907709    -0.35300
N163        N  0.86745313  0.12335516  0.62888860    -0.27500
C164        C  0.88023856  0.11502065  0.62814164    -0.02800
C165        C  0.87628631  0.09980730  0.62774252     0.05900
C166        C  0.86054422  0.09974038  0.62827600     0.03900
H167        H  0.89157450  0.11971338  0.62835764     0.09100
H168        H  0.85321434  0.08989428  0.62841450     0.07900
N169        N  0.90102002  0.32877611  0.67293719    -0.26500
N170        N  0.89663717  0.31555893  0.67855379    -0.34400
C171        C  0.89515080  0.31677980  0.69369721     0.01800
C172        C  0.89873473  0.33148443  0.69781731     0.07900
C173        C  0.90238053  0.33881302  0.68438850    -0.05200
H174        H  0.89158684  0.30767300  0.70114470     0.08500
H175        H  0.90577176  0.35054094  0.68304174     0.09700
Cu176      Cu  0.89264780  0.29649501  0.66548721     0.44200
Cu177      Cu  0.90457696  0.33251172  0.64992655     0.42000
Cu178      Cu  0.89757566  0.30057232  0.62482986     0.43900
N179        N  0.88960894  0.27896664  0.65020391    -0.33900
N180        N  0.89152158  0.28036711  0.63536637    -0.28100
C181        C  0.88852414  0.26696032  0.62870351    -0.04200
C182        C  0.88450616  0.25666374  0.63990169     0.08000
C183        C  0.88531491  0.26467597  0.65338558     0.01800
H184        H  0.88909152  0.26490422  0.61659537     0.09400
H185        H  0.88269827  0.26051319  0.66465797     0.08500
N186        N  0.90308734  0.32221405  0.61724208    -0.35300
N187        N  0.90575401  0.33380632  0.62640833    -0.27500
C188        C  0.90844547  0.34627906  0.61799804    -0.02800
C189        C  0.90738302  0.34237877  0.60279856     0.05900
C190        C  0.90399594  0.32702227  0.60275200     0.03900
H191        H  0.91074945  0.35742422  0.62261880     0.09100
H192        H  0.90194734  0.31995383  0.59291075     0.07900
N193        N  0.86059743  0.36455070  0.83269440    -0.26500
N194        N  0.85512573  0.36236558  0.81889264    -0.34400
C195        C  0.83990714  0.36200002  0.81956620     0.01800
C196        C  0.83556991  0.36405313  0.83452329     0.07900
C197        C  0.84897356  0.36562482  0.84256705    -0.05200
H198        H  0.83254929  0.36008848  0.80991849     0.08500
H199        H  0.85019578  0.36728563  0.85468525     0.09700
Cu200      Cu  0.86851561  0.35964111  0.79982561     0.44200
Cu201      Cu  0.88362410  0.36543517  0.83727973     0.42000
Cu202      Cu  0.90905546  0.36374476  0.80458385     0.43900
N203        N  0.88390873  0.35766742  0.78223557    -0.33900
N204        N  0.89871673  0.35946442  0.78380584    -0.28100
C205        C  0.90546163  0.35694980  0.77030711    -0.04200
C206        C  0.89433340  0.35335157  0.75978502     0.08000
C207        C  0.88082482  0.35392398  0.76777001     0.01800
H208        H  0.91758443  0.35733254  0.76839295     0.09400
H209        H  0.86961083  0.35133944  0.76349804     0.08500
N210        N  0.91633442  0.36492473  0.82702020    -0.35300
N211        N  0.90707549  0.36530089  0.83885662    -0.27500
C212        C  0.91533498  0.36511149  0.85169804    -0.02800
C213        C  0.93054164  0.36461253  0.84779402     0.05900
C214        C  0.93074402  0.36453226  0.83204826     0.03900
H215        H  0.91059274  0.36503484  0.86304461     0.09100
H216        H  0.94064086  0.36404181  0.82477504     0.07900
N217        N  0.66813157  0.16520687  0.83239309    -0.26500
N218        N  0.67148181  0.17860562  0.82652387    -0.34400
C219        C  0.67208779  0.17745269  0.81131517     0.01800
C220        C  0.66881224  0.16261966  0.80728427     0.07900
C221        C  0.66638032  0.15516245  0.82098617    -0.05200
H222        H  0.67476402  0.18676252  0.80374954     0.08500
H223        H  0.66341475  0.14334724  0.82255377     0.09700
Cu224      Cu  0.67438737  0.19806947  0.83926022     0.44200
Cu225      Cu  0.66607822  0.16151459  0.85570369     0.42000
Cu226      Cu  0.66855014  0.19517849  0.87982520     0.43900
N227        N  0.67558784  0.21639430  0.85383571    -0.33900
N228        N  0.67345342  0.21546935  0.86868275    -0.28100
C229        C  0.67538014  0.22934858  0.87480441    -0.04200
C230        C  0.67881573  0.23944147  0.86321078     0.08000
C231        C  0.67885220  0.23082231  0.85009486     0.01800
H232        H  0.67452025  0.23187478  0.88680572     0.09400
H233        H  0.68140428  0.23468467  0.83870072     0.08500
N234        N  0.66497881  0.17327320  0.88805041    -0.35300
N235        N  0.66428296  0.16105850  0.87932168    -0.27500
C236        C  0.66268347  0.14870478  0.88820447    -0.02800
C237        C  0.66234580  0.15331162  0.90325779     0.05900
C238        C  0.66378973  0.16898652  0.90269583     0.03900
H239        H  0.66224352  0.13715834  0.88402871     0.09100
H240        H  0.66424234  0.17669522  0.91225553     0.07900
N241        N  0.69931607  0.32762336  0.86613854    -0.26500
N242        N  0.71264918  0.32220502  0.86183927    -0.34400
C243        C  0.71182457  0.30702757  0.86075365     0.01800
C244        C  0.69729101  0.30258864  0.86458611     0.07900
C245        C  0.68960169  0.31593554  0.86788685    -0.05200
H246        H  0.72119670  0.29972888  0.85758225     0.08500
H247        H  0.67793224  0.31703906  0.87156290     0.09700
Cu248      Cu  0.73179721  0.33524401  0.85845169     0.44200
Cu249      Cu  0.69539034  0.35066255  0.86978852     0.42000
Cu250      Cu  0.72898009  0.37492325  0.86685232     0.43900
N251        N  0.75010263  0.34979824  0.85748200    -0.33900
N252        N  0.74917037  0.36441768  0.86072923    -0.28100
C253        C  0.76292917  0.37076595  0.85888703    -0.04200
C254        C  0.77297578  0.35955507  0.85428148     0.08000
C255        C  0.76444263  0.34641227  0.85351355     0.01800
H256        H  0.76539026  0.38268166  0.86057281     0.09400
H257        H  0.76829090  0.33527466  0.85000723     0.08500
N258        N  0.70722322  0.38290007  0.87119614    -0.35300
N259        N  0.69502252  0.37420068  0.87211269    -0.27500
C260        C  0.68272998  0.38311620  0.87396298    -0.02800
C261        C  0.68739910  0.39814324  0.87419825     0.05900
C262        C  0.70301780  0.39752988  0.87249286     0.03900
H263        H  0.67118394  0.37899098  0.87454127     0.09100
H264        H  0.71074649  0.40704650  0.87186496     0.07900
N265        N  0.70362567  0.12624211  0.67273821    -0.26500
N266        N  0.70926408  0.12917731  0.68632328    -0.34400
C267        C  0.72435414  0.13103679  0.68513484     0.01800
C268        C  0.72833521  0.12921122  0.67003984     0.07900
C269        C  0.71493500  0.12618749  0.66249151    -0.05200
H270        H  0.73182026  0.13376326  0.69449729     0.08500
H271        H  0.71349180  0.12419431  0.65044850     0.09700
Cu272      Cu  0.69594402  0.13121119  0.70551599     0.44200
Cu273      Cu  0.68078394  0.12320712  0.66875873     0.42000
Cu274      Cu  0.65493887  0.12928051  0.70048200     0.43900
N275        N  0.68048476  0.13431904  0.72287021    -0.33900
N276        N  0.66556642  0.13383276  0.72124007    -0.28100
C277        C  0.65906782  0.13725048  0.73469694    -0.04200
C278        C  0.67048956  0.13994314  0.74521098     0.08000
C279        C  0.68387229  0.13798593  0.73728084     0.01800
H280        H  0.64696172  0.13798893  0.73662411     0.09400
H281        H  0.69526861  0.13960318  0.74154853     0.08500
N282        N  0.64797126  0.12505363  0.67815225    -0.35300
N283        N  0.65748157  0.12269680  0.66675311    -0.27500
C284        C  0.64957488  0.12062899  0.65385926    -0.02800
C285        C  0.63428949  0.12177624  0.65721109     0.05900
C286        C  0.63369655  0.12456356  0.67273061     0.03900
H287        H  0.65462396  0.11850592  0.64284872     0.09100
H288        H  0.62361171  0.12633695  0.67953234     0.07900
N289        N  0.20862027  0.63977574  0.83751207    -0.26500
N290        N  0.21416628  0.64109063  0.82359513    -0.34400
C291        C  0.22937628  0.64172107  0.82430436     0.01800
C292        C  0.23365061  0.64079041  0.83937292     0.07900
C293        C  0.22022064  0.63962007  0.84746850    -0.05200
H294        H  0.23678696  0.64282189  0.81455360     0.08500
H295        H  0.21898594  0.63848419  0.85964945     0.09700
Cu296      Cu  0.20116580  0.64210837  0.80406638     0.44200
Cu297      Cu  0.18560657  0.63742343  0.84223518     0.42000
Cu298      Cu  0.16141238  0.63552232  0.80879305     0.43900
N299        N  0.18581318  0.64382227  0.78639253    -0.33900
N300        N  0.17112513  0.64134321  0.78809110    -0.28100
C301        C  0.16408248  0.64405675  0.77480012    -0.04200
C302        C  0.17488581  0.64848142  0.76423570     0.08000
C303        C  0.18854154  0.64818192  0.77199996     0.01800
H304        H  0.15197358  0.64311558  0.77302582     0.09400
H305        H  0.19958590  0.65131496  0.76763212     0.08500
N306        N  0.15374942  0.63224065  0.83087730    -0.35300
N307        N  0.16237998  0.63329639  0.84312336    -0.27500
C308        C  0.15361832  0.63155541  0.85556581    -0.02800
C309        C  0.13876543  0.62932090  0.85090219     0.05900
C310        C  0.13932865  0.62976142  0.83518443     0.03900
H311        H  0.15768021  0.63232709  0.86713759     0.09100
H312        H  0.12985626  0.62876791  0.82743483     0.07900
N313        N  0.37050739  0.67766678  0.86370674    -0.26500
N314        N  0.35720052  0.68324850  0.85952485    -0.34400
C315        C  0.35853562  0.69830502  0.85730991     0.01800
C316        C  0.37338129  0.70244698  0.86030238     0.07900
C317        C  0.38062651  0.68906771  0.86434055    -0.05200
H318        H  0.34937444  0.70566501  0.85371191     0.08500
H319        H  0.39241011  0.68771420  0.86751571     0.09700
Cu320      Cu  0.33758665  0.67047676  0.85754013     0.44200
Cu321      Cu  0.37466701  0.65478108  0.86800058     0.42000
Cu322      Cu  0.34137762  0.63114286  0.86790155     0.43900
N323        N  0.31944212  0.65560054  0.85866217    -0.33900
N324        N  0.32080015  0.64124681  0.86283573    -0.28100
C325        C  0.30708079  0.63459575  0.86238372    -0.04200
C326        C  0.29656998  0.64528857  0.85764591     0.08000
C327        C  0.30481848  0.65847741  0.85540356     0.01800
H328        H  0.30498144  0.62278968  0.86505494     0.09400
H329        H  0.30055804  0.66927773  0.85135835     0.08500
N330        N  0.36316412  0.62272669  0.87030615    -0.35300
N331        N  0.37549447  0.63126349  0.87034724    -0.27500
C332        C  0.38778550  0.62216392  0.87118371    -0.02800
C333        C  0.38287922  0.60720607  0.87159977     0.05900
C334        C  0.36721896  0.60803614  0.87107021     0.03900
H335        H  0.39941008  0.62609992  0.87099066     0.09100
H336        H  0.35934193  0.59862270  0.87091273     0.07900
N337        N  0.41043899  0.83518674  0.82557054    -0.26500
N338        N  0.41177030  0.82145197  0.81967127    -0.34400
C339        C  0.41002813  0.82230361  0.80454183     0.01800
C340        C  0.40716578  0.83727693  0.80065235     0.07900
C341        C  0.40757923  0.84513861  0.81431167    -0.05200
H342        H  0.41030043  0.81260456  0.79699944     0.08500
H343        H  0.40542838  0.85711283  0.81602830     0.09700
Cu344      Cu  0.41313123  0.80182900  0.83244350     0.44200
Cu345      Cu  0.41208355  0.83950584  0.84873585     0.42000
Cu346      Cu  0.41267792  0.80624315  0.87317853     0.43900
N347        N  0.40888121  0.78417974  0.84729952    -0.33900
N348        N  0.40849375  0.78574031  0.86223345    -0.28100
C349        C  0.40374567  0.77260959  0.86845804    -0.04200
C350        C  0.40092701  0.76234972  0.85685016     0.08000
C351        C  0.40434270  0.77009420  0.84361060     0.01800
H352        H  0.40191871  0.77085714  0.88049103     0.09400
H353        H  0.40282719  0.76606903  0.83209476     0.08500
N354        N  0.41579737  0.82832388  0.88098332    -0.35300
N355        N  0.41533884  0.84045968  0.87212198    -0.27500
C356        C  0.41755697  0.85294191  0.88066971    -0.02800
C357        C  0.41955517  0.84845410  0.89562250     0.05900
C358        C  0.41836585  0.83277203  0.89538439     0.03900
H359        H  0.41779181  0.86443022  0.87630851     0.09100
H360        H  0.41914226  0.82516399  0.90501321     0.07900
N361        N  0.19709394  0.82448710  0.63139907    -0.26500
N362        N  0.21069535  0.81832281  0.63278813    -0.34400
C363        C  0.20933506  0.80312429  0.63217127     0.01800
C364        C  0.19412408  0.79957420  0.63032182     0.07900
C365        C  0.18671430  0.81343376  0.62980942    -0.05200
H366        H  0.21863445  0.79522145  0.63363817     0.08500
H367        H  0.17462577  0.81535887  0.62883016     0.09700
Cu368      Cu  0.23012309  0.83101623  0.63673441     0.44200
Cu369      Cu  0.19316730  0.84750293  0.63319158     0.42000
Cu370      Cu  0.22505808  0.87183864  0.64218244     0.43900
N371        N  0.24756890  0.84598415  0.64181071    -0.33900
N372        N  0.24576448  0.86076957  0.64382069    -0.28100
C373        C  0.25921412  0.86695315  0.64753403    -0.04200
C374        C  0.26996262  0.85550023  0.64791608     0.08000
C375        C  0.26219576  0.84237635  0.64422133     0.01800
H376        H  0.26094294  0.87881862  0.65020710     0.09400
H377        H  0.26677734  0.83098225  0.64363535     0.08500
N378        N  0.20298311  0.87958567  0.63966266    -0.35300
N379        N  0.19142673  0.87064363  0.63628732    -0.27500
C380        C  0.17871523  0.87901684  0.63531023    -0.02800
C381        C  0.18244355  0.89396221  0.63820562     0.05900
C382        C  0.19791283  0.89393922  0.64094210     0.03900
H383        H  0.16758351  0.87453059  0.63275025     0.09100
H384        H  0.20496999  0.90364364  0.64353171     0.07900
N385        N  0.35786558  0.86096010  0.66768214    -0.26500
N386        N  0.35293321  0.86334055  0.68168144    -0.34400
C387        C  0.33769670  0.86349066  0.68165538     0.01800
C388        C  0.33275209  0.86099990  0.66696049     0.07900
C389        C  0.34584556  0.85948494  0.65837501    -0.05200
H390        H  0.33072737  0.86501233  0.69167227     0.08500
H391        H  0.34658706  0.85713260  0.64632973     0.09700
Cu392      Cu  0.36676416  0.86507324  0.70057467     0.44200
Cu393      Cu  0.38066432  0.85957432  0.66192365     0.42000
Cu394      Cu  0.40668578  0.86408195  0.69360058     0.43900
N395        N  0.38267951  0.86369281  0.71777343    -0.33900
N396        N  0.39744513  0.86331880  0.71518732    -0.28100
C397        C  0.40473571  0.86064702  0.72833552    -0.04200
C398        C  0.39401590  0.85921028  0.73973849     0.08000
C399        C  0.38014649  0.86126162  0.73264322     0.01800
H400        H  0.41684963  0.85890280  0.72935033     0.09400
H401        H  0.36901902  0.86023980  0.73775173     0.08500
N402        N  0.41345835  0.86220575  0.67117813    -0.35300
N403        N  0.40409055  0.86012922  0.65962879    -0.27500
C404        C  0.41227020  0.85865664  0.64678446    -0.02800
C405        C  0.42747049  0.85995379  0.65048992     0.05900
C406        C  0.42780400  0.86219497  0.66601557     0.03900
H407        H  0.40751640  0.85678978  0.63560886     0.09100
H408        H  0.43776455  0.86342394  0.67309114     0.07900
N409        N  0.16213711  0.66759968  0.67674810    -0.26500
N410        N  0.16455977  0.68178684  0.68102889    -0.34400
C411        C  0.16654707  0.68218409  0.69616479     0.01800
C412        C  0.16534757  0.66754410  0.70171070     0.07900
C413        C  0.16253566  0.65857828  0.68909201    -0.05200
H414        H  0.16911362  0.69233022  0.70259701     0.08500
H415        H  0.16113274  0.64637537  0.68886946     0.09700
Cu416      Cu  0.16602837  0.69995803  0.66620700     0.44200
Cu417      Cu  0.15924341  0.66110108  0.65422873     0.42000
Cu418      Cu  0.16079931  0.69225096  0.62673348     0.43900
N419        N  0.16806952  0.71638359  0.64953704    -0.33900
N420        N  0.16608453  0.71365185  0.63491730    -0.28100
C421        C  0.16867048  0.72650330  0.62703139    -0.04200
C422        C  0.17245779  0.73786019  0.63724495     0.08000
C423        C  0.17197447  0.73099918  0.65138926     0.01800
H424        H  0.16795836  0.72746435  0.61479529     0.09400
H425        H  0.17457380  0.73618239  0.66222391     0.08500
N426        N  0.15790850  0.66960940  0.62103144    -0.35300
N427        N  0.15763893  0.65821774  0.63083529    -0.27500
C428        C  0.15693307  0.64504353  0.62308085    -0.02800
C429        C  0.15676290  0.64833794  0.60767383     0.05900
C430        C  0.15728038  0.66402019  0.60685815     0.03900
H431        H  0.15708953  0.63389781  0.62826108     0.09100
H432        H  0.15762259  0.67088768  0.59666428     0.07900
N433        N  0.66059698  0.82834537  0.17392006    -0.26500
N434        N  0.66136812  0.81436277  0.17937419    -0.34400
C435        C  0.66118329  0.81496420  0.19465929     0.01800
C436        C  0.66028225  0.83003588  0.19910605     0.07900
C437        C  0.65984818  0.83818436  0.18561329    -0.05200
H438        H  0.66244708  0.80519285  0.20201270     0.08500
H439        H  0.65961839  0.85040973  0.18438266     0.09700
Cu440      Cu  0.66451153  0.79513071  0.16597141     0.44200
Cu441      Cu  0.66239838  0.83354388  0.15089331     0.42000
Cu442      Cu  0.67207600  0.80166440  0.12637505     0.43900
N443        N  0.67039265  0.77794749  0.15082392    -0.33900
N444        N  0.67354832  0.78045327  0.13635823    -0.28100
C445        C  0.67807770  0.76738168  0.12986189    -0.04200
C446        C  0.67774049  0.75602103  0.14075301     0.08000
C447        C  0.67272992  0.76315891  0.15389511     0.01800
H448        H  0.68179972  0.76633773  0.11818816     0.09400
H449        H  0.67122488  0.75805672  0.16498002     0.08500
N450        N  0.66928943  0.82370605  0.11875161    -0.35300
N451        N  0.66576986  0.83538239  0.12753854    -0.27500
C452        C  0.66462072  0.84792643  0.11883825    -0.02800
C453        C  0.66747672  0.84386622  0.10389915     0.05900
C454        C  0.67041431  0.82845726  0.10429287     0.03900
H455        H  0.66167467  0.85910023  0.12302905     0.09100
H456        H  0.67308438  0.82119287  0.09473737     0.07900
N457        N  0.70330343  0.86311576  0.33427736    -0.26500
N458        N  0.70873699  0.86079623  0.32044419    -0.34400
C459        C  0.72399351  0.86061695  0.32108196     0.01800
C460        C  0.72837982  0.86284968  0.33601339     0.07900
C461        C  0.71496793  0.86436296  0.34408360    -0.05200
H462        H  0.73136781  0.85874414  0.31142109     0.08500
H463        H  0.71377376  0.86623544  0.35617557     0.09700
Cu464      Cu  0.69529255  0.85766075  0.30123163     0.44200
Cu465      Cu  0.68028205  0.86470293  0.33916797     0.42000
Cu466      Cu  0.65534617  0.86389677  0.30614501     0.43900
N467        N  0.67960340  0.85531833  0.28368816    -0.33900
N468        N  0.66493628  0.85795488  0.28543907    -0.28100
C469        C  0.65777063  0.85526701  0.27220276    -0.04200
C470        C  0.66843175  0.85063881  0.26156567     0.08000
C471        C  0.68215509  0.85082081  0.26928786     0.01800
H472        H  0.64566467  0.85642308  0.27050643     0.09400
H473        H  0.69315678  0.84763333  0.26483527     0.08500
N474        N  0.64787919  0.86673316  0.32833095    -0.35300
N475        N  0.65682071  0.86675147  0.34039866    -0.27500
C476        C  0.64820273  0.86803216  0.35298568    -0.02800
C477        C  0.63312342  0.86886167  0.34859868     0.05900
C478        C  0.63338310  0.86799778  0.33290475     0.03900
H479        H  0.65258920  0.86826037  0.36446281     0.09100
H480        H  0.62369049  0.86790131  0.32536288     0.07900
N481        N  0.86452588  0.82332122  0.36531337    -0.26500
N482        N  0.85081540  0.81796220  0.36238842    -0.34400
C483        C  0.85138468  0.80268811  0.36225940     0.01800
C484        C  0.86614202  0.79814292  0.36527507     0.07900
C485        C  0.87415385  0.81156534  0.36716541    -0.05200
H486        H  0.84178609  0.79541396  0.35990279     0.08500
H487        H  0.88611736  0.81271202  0.36965663     0.09700
Cu488      Cu  0.83176505  0.83149253  0.35874915     0.44200
Cu489      Cu  0.86957151  0.84640505  0.36643644     0.42000
Cu490      Cu  0.83678565  0.87153132  0.36387033     0.43900
N491        N  0.81411889  0.84712962  0.35694657    -0.33900
N492        N  0.81592729  0.86184170  0.35923313    -0.28100
C493        C  0.80247441  0.86890263  0.35757605    -0.04200
C494        C  0.79161225  0.85811984  0.35396093     0.08000
C495        C  0.79946081  0.84444239  0.35365031     0.01800
H496        H  0.80076163  0.88099587  0.35891774     0.09400
H497        H  0.79487253  0.83334999  0.35106394     0.08500
N498        N  0.85882864  0.87898579  0.36687904    -0.35300
N499        N  0.87086394  0.86999977  0.36749509    -0.27500
C500        C  0.88337017  0.87864011  0.36909911    -0.02800
C501        C  0.87889788  0.89371201  0.36961994     0.05900
C502        C  0.86330449  0.89350404  0.36817795     0.03900
H503        H  0.89482540  0.87428446  0.36996182     0.09100
H504        H  0.85576290  0.90321127  0.36796022     0.07900
N505        N  0.85898615  0.62534208  0.16772522    -0.26500
N506        N  0.85350713  0.62418405  0.18166147    -0.34400
C507        C  0.83827725  0.62394123  0.18107071     0.01800
C508        C  0.83384122  0.62517141  0.16603316     0.07900
C509        C  0.84730492  0.62594336  0.15786711    -0.05200
H510        H  0.83096288  0.62352273  0.19094604     0.08500
H511        H  0.84850476  0.62756082  0.14573634     0.09700
Cu512      Cu  0.86669214  0.62533009  0.20103732     0.44200
Cu513      Cu  0.88210000  0.62750677  0.16321937     0.42000
Cu514      Cu  0.90667235  0.63305273  0.19636567     0.43900
N515        N  0.88094790  0.63043448  0.21895650    -0.33900
N516        N  0.89556738  0.63344875  0.21740590    -0.28100
C517        C  0.90116385  0.63753437  0.23106242    -0.04200
C518        C  0.88946097  0.63715549  0.24163318     0.08000
C519        C  0.87684456  0.63254990  0.23352297     0.01800
H520        H  0.91272512  0.64114615  0.23303770     0.09400
H521        H  0.86538760  0.63131854  0.23778297     0.08500
N522        N  0.91447122  0.63235218  0.17388668    -0.35300
N523        N  0.90554458  0.63037830  0.16195866    -0.27500
C524        C  0.91409743  0.63026947  0.14926620    -0.02800
C525        C  0.92918098  0.63219783  0.15330704     0.05900
C526        C  0.92894177  0.63350794  0.16903125     0.03900
H527        H  0.90964965  0.62878133  0.13790892     0.09100
H528        H  0.93863777  0.63485722  0.17644106     0.07900
N529        N  0.89476293  0.66147747  0.32899989    -0.26500
N530        N  0.89416541  0.67537882  0.32333864    -0.34400
C531        C  0.89358118  0.67451131  0.30809430     0.01800
C532        C  0.89363043  0.65933098  0.30388878     0.07900
C533        C  0.89442206  0.65140313  0.31748850    -0.05200
H534        H  0.89289664  0.68424641  0.30061645     0.08500
H535        H  0.89438000  0.63920383  0.31894726     0.09700
Cu536      Cu  0.89304653  0.69496341  0.33651253     0.44200
Cu537      Cu  0.89594131  0.65690173  0.35214803     0.42000
Cu538      Cu  0.89656703  0.69014807  0.37692102     0.43900
N539        N  0.89081087  0.71273989  0.35191729    -0.33900
N540        N  0.89216068  0.71104432  0.36678278    -0.28100
C541        C  0.88951088  0.72450278  0.37359080    -0.04200
C542        C  0.88633596  0.73519407  0.36245190     0.08000
C543        C  0.88726947  0.72729151  0.34886805     0.01800
H544        H  0.88969778  0.72632200  0.38574786     0.09400
H545        H  0.88516072  0.73173143  0.33759707     0.08500
N546        N  0.89865750  0.66786396  0.38453218    -0.35300
N547        N  0.89818827  0.65575460  0.37564085    -0.27500
C548        C  0.89870727  0.64316627  0.38434725    -0.02800
C549        C  0.89949134  0.64758158  0.39942581     0.05900
C550        C  0.89948040  0.66329876  0.39908710     0.03900
H551        H  0.89791227  0.63167797  0.38006369     0.09100
H552        H  0.89946491  0.67086860  0.40877094     0.07900
N553        N  0.70017123  0.66872409  0.13245420    -0.26500
N554        N  0.71427932  0.67380087  0.13296931    -0.34400
C555        C  0.71402306  0.68906937  0.13344244     0.01800
C556        C  0.69903595  0.69384012  0.13318686     0.07900
C557        C  0.69056479  0.68063072  0.13250949    -0.05200
H558        H  0.72399067  0.69616637  0.13442105     0.08500
H559        H  0.67832441  0.67972039  0.13276235     0.09700
Cu560      Cu  0.73320488  0.65973603  0.13430987     0.44200
Cu561      Cu  0.69467704  0.64582763  0.13316895     0.42000
Cu562      Cu  0.72647063  0.61937502  0.13623860     0.43900
N563        N  0.75031141  0.64373698  0.13732791    -0.33900
N564        N  0.74787756  0.62895164  0.13821613    -0.28100
C565        C  0.76099135  0.62191511  0.14175841    -0.04200
C566        C  0.77223150  0.63281036  0.14319721     0.08000
C567        C  0.76503443  0.64649275  0.14019307     0.01800
H568        H  0.76206938  0.60987449  0.14397625     0.09400
H569        H  0.76998309  0.65771670  0.14078319     0.08500
N570        N  0.70387270  0.61283285  0.13541345    -0.35300
N571        N  0.69232286  0.62241791  0.13456397    -0.27500
C572        C  0.67927704  0.61449198  0.13473944    -0.02800
C573        C  0.68280795  0.59920939  0.13564932     0.05900
C574        C  0.69848192  0.59856530  0.13604906     0.03900
H575        H  0.66806027  0.61947638  0.13416973     0.09100
H576        H  0.70545338  0.58847631  0.13691535     0.07900
N577        N  0.19656091  0.16801636  0.64066335    -0.26500
N578        N  0.21042921  0.17361541  0.64165784    -0.34400
C579        C  0.20965647  0.18885482  0.64198416     0.01800
C580        C  0.19456243  0.19314007  0.64107781     0.07900
C581        C  0.18655520  0.17960052  0.64026418    -0.05200
H582        H  0.21937243  0.19627645  0.64305600     0.08500
H583        H  0.17437467  0.17826588  0.63952241     0.09700
Cu584      Cu  0.22979351  0.16030962  0.64280503     0.44200
Cu585      Cu  0.19232091  0.14479245  0.64044892     0.42000
Cu586      Cu  0.22575996  0.11973076  0.64405726     0.43900
N587        N  0.24796693  0.14550306  0.64477287    -0.33900
N588        N  0.24659402  0.13058623  0.64559683    -0.28100
C589        C  0.26034334  0.12446216  0.64834039    -0.04200
C590        C  0.27087353  0.13612662  0.64928164     0.08000
C591        C  0.26258510  0.14927276  0.64680086     0.01800
H592        H  0.26238883  0.11249700  0.65026489     0.09400
H593        H  0.26675545  0.16082085  0.64709414     0.08500
N594        N  0.20349065  0.11223333  0.64246007    -0.35300
N595        N  0.19148615  0.12119652  0.64110517    -0.27500
C596        C  0.17892136  0.11255427  0.64041180    -0.02800
C597        C  0.18322085  0.09747078  0.64140930     0.05900
C598        C  0.19885826  0.09769078  0.64268615     0.03900
H599        H  0.16749036  0.11693668  0.63938670     0.09100
H600        H  0.20633775  0.08798199  0.64364855     0.07900
N601        N  0.35862380  0.13016574  0.67172516    -0.26500
N602        N  0.35317787  0.13053606  0.68573874    -0.34400
C603        C  0.33795250  0.13076955  0.68515696     0.01800
C604        C  0.33347072  0.13083243  0.67007576     0.07900
C605        C  0.34692038  0.13035961  0.66186601    -0.05200
H606        H  0.33067227  0.13134130  0.69504929     0.08500
H607        H  0.34813765  0.13067753  0.64963421     0.09700
Cu608      Cu  0.36617873  0.13265264  0.70530413     0.44200
Cu609      Cu  0.38174034  0.12994329  0.66669277     0.42000
Cu610      Cu  0.40604950  0.13365744  0.69993990     0.43900
N611        N  0.38122872  0.13728763  0.72284932    -0.33900
N612        N  0.39605860  0.13776236  0.72073301    -0.28100
C613        C  0.40286919  0.14180874  0.73377765    -0.04200
C614        C  0.39176633  0.14399455  0.74468597     0.08000
C615        C  0.37816645  0.14100691  0.73736713     0.01800
H616        H  0.41498372  0.14324031  0.73515736     0.09400
H617        H  0.36687498  0.14188470  0.74213346     0.08500
N618        N  0.41401530  0.13062250  0.67811070    -0.35300
N619        N  0.40537498  0.12945339  0.66588435    -0.27500
C620        C  0.41440494  0.12841009  0.65355857    -0.02800
C621        C  0.42938489  0.12902220  0.65833890     0.05900
C622        C  0.42866815  0.13033950  0.67395564     0.03900
H623        H  0.41037971  0.12770718  0.64196848     0.09100
H624        H  0.43811316  0.13136028  0.68173552     0.07900
N625        N  0.17086086  0.33145978  0.67466374    -0.26500
N626        N  0.17147061  0.31791694  0.68110697    -0.34400
C627        C  0.17249521  0.31963278  0.69624072     0.01800
C628        C  0.17260479  0.33501250  0.69951992     0.07900
C629        C  0.17155596  0.34218581  0.68553709    -0.05200
H630        H  0.17299688  0.31034712  0.70428319     0.08500
H631        H  0.17131078  0.35428821  0.68341632     0.09700
Cu632      Cu  0.17088388  0.29771195  0.66905363     0.44200
Cu633      Cu  0.16849727  0.33440715  0.65144404     0.42000
Cu634      Cu  0.16293898  0.29984303  0.62891058     0.43900
N635        N  0.17062328  0.27891857  0.65488446    -0.33900
N636        N  0.16746010  0.27959129  0.64021653    -0.28100
C637        C  0.16923723  0.26567197  0.63413447    -0.04200
C638        C  0.17379755  0.25578173  0.64552539     0.08000
C639        C  0.17452390  0.26459935  0.65852021     0.01800
H640        H  0.16787878  0.26306481  0.62219794     0.09400
H641        H  0.17827179  0.26101845  0.66966709     0.08500
N642        N  0.16262501  0.32173737  0.62002641    -0.35300
N643        N  0.16490350  0.33414299  0.62819615    -0.27500
C644        C  0.16499280  0.34627687  0.61893417    -0.02800
C645        C  0.16269882  0.34131847  0.60422310     0.05900
C646        C  0.16123122  0.32569823  0.60531497     0.03900
H647        H  0.16700968  0.35782912  0.62259540     0.09100
H648        H  0.15962049  0.31776744  0.59606851     0.07900
N649        N  0.39881110  0.16832344  0.83171873    -0.26500
N650        N  0.39493879  0.18176901  0.82624366    -0.34400
C651        C  0.39389219  0.18080641  0.81103015     0.01800
C652        C  0.39728732  0.16606137  0.80668267     0.07900
C653        C  0.40038691  0.15847737  0.82012778    -0.05200
H654        H  0.39057398  0.19009231  0.80368709     0.08500
H655        H  0.40337277  0.14662727  0.82143188     0.09700
Cu656      Cu  0.39097519  0.20083209  0.83962639     0.44200
Cu657      Cu  0.40069159  0.16364138  0.85473552     0.42000
Cu658      Cu  0.39410885  0.19521227  0.88019287     0.43900
N659        N  0.38878161  0.21825476  0.85543325    -0.33900
N660        N  0.39034102  0.21621728  0.87023274    -0.28100
C661        C  0.38847647  0.22960675  0.87734761    -0.04200
C662        C  0.38545391  0.24064868  0.86653633     0.08000
C663        C  0.38574840  0.23300122  0.85275731     0.01800
H664        H  0.38914743  0.23114217  0.88952486     0.09400
H665        H  0.38365849  0.23775969  0.84161503     0.08500
N666        N  0.39686625  0.17297525  0.88744523    -0.35300
N667        N  0.39951650  0.16145924  0.87816924    -0.27500
C668        C  0.40058161  0.14860267  0.88637271    -0.02800
C669        C  0.39842152  0.15221080  0.90152443     0.05900
C670        C  0.39609165  0.16775061  0.90178749     0.03900
H671        H  0.40255894  0.13743357  0.88163980     0.09100
H672        H  0.39402069  0.17474857  0.91168163     0.07900
N673        N  0.36552227  0.32902715  0.87281591    -0.26500
N674        N  0.35163570  0.32347783  0.87151240    -0.34400
C675        C  0.35238478  0.30822615  0.87151985     0.01800
C676        C  0.36743682  0.30389356  0.87290283     0.07900
C677        C  0.37545606  0.31740884  0.87371886    -0.05200
H678        H  0.34270000  0.30080876  0.87016922     0.08500
H679        H  0.38762384  0.31872003  0.87467277     0.09700
Cu680      Cu  0.33215062  0.33660350  0.86885172     0.44200
Cu681      Cu  0.37041284  0.35213736  0.87233893     0.42000
Cu682      Cu  0.33766868  0.37681294  0.86680387     0.43900
N683        N  0.31453993  0.35187429  0.86489448    -0.33900
N684        N  0.31663235  0.36671228  0.86413955    -0.28100
C685        C  0.30345774  0.37347846  0.86038283    -0.04200
C686        C  0.29249196  0.36236643  0.85864569     0.08000
C687        C  0.29993693  0.34879563  0.86164838     0.01800
H688        H  0.30213234  0.38553016  0.85836826     0.09400
H689        H  0.29520636  0.33747964  0.86101760     0.08500
N690        N  0.35980437  0.38452172  0.86842314    -0.35300
N691        N  0.37177090  0.37565293  0.87039496    -0.27500
C692        C  0.38434104  0.38433708  0.87066598    -0.02800
C693        C  0.38004933  0.39937318  0.86875630     0.05900
C694        C  0.36441629  0.39902642  0.86740175     0.03900
H695        H  0.39576058  0.38001457  0.87202165     0.09100
H696        H  0.35691023  0.40863717  0.86585055     0.07900
N697        N  0.20591994  0.37156915  0.83400659    -0.26500
N698        N  0.21150481  0.37308491  0.82013697    -0.34400
C699        C  0.22673976  0.37287193  0.82082529     0.01800
C700        C  0.23103145  0.37105393  0.83584307     0.07900
C701        C  0.21751752  0.37034408  0.84390373    -0.05200
H702        H  0.23414812  0.37346338  0.81102789     0.08500
H703        H  0.21621265  0.36844633  0.85598301     0.09700
Cu704      Cu  0.19840170  0.37335504  0.80060849     0.44200
Cu705      Cu  0.18275838  0.37009316  0.83849766     0.42000
Cu706      Cu  0.15829601  0.36745678  0.80506707     0.43900
N707        N  0.18398965  0.36889562  0.78258602    -0.33900
N708        N  0.16932074  0.36623756  0.78419927    -0.28100
C709        C  0.16366543  0.36153077  0.77079193    -0.04200
C710        C  0.17536288  0.36119695  0.76022962     0.08000
C711        C  0.18804135  0.36608593  0.76812986     0.01800
H712        H  0.15210588  0.35777892  0.76908771     0.09400
H713        H  0.19955334  0.36678033  0.76389977     0.08500
N714        N  0.15034711  0.36803176  0.82732470    -0.35300
N715        N  0.15917613  0.36878129  0.83946175    -0.27500
C716        C  0.15041792  0.36853761  0.85201484    -0.02800
C717        C  0.13536582  0.36763357  0.84756906     0.05900
C718        C  0.13577275  0.36735149  0.83184452     0.03900
H719        H  0.15468937  0.36903073  0.86352741     0.09100
H720        H  0.12616974  0.36649643  0.82423782     0.07900
N721        N  0.20484534  0.63882493  0.17384814    -0.26500
N722        N  0.20986765  0.63878640  0.18800113    -0.34400
C723        C  0.22512106  0.63890910  0.18791781     0.01800
C724        C  0.23004139  0.63911926  0.17298008     0.07900
C725        C  0.21685626  0.63901442  0.16435751    -0.05200
H726        H  0.23211379  0.63899505  0.19801910     0.08500
H727        H  0.21605570  0.63935949  0.15209469     0.09700
Cu728      Cu  0.19591187  0.63931277  0.20687868     0.44200
Cu729      Cu  0.18179386  0.63888225  0.16833214     0.42000
Cu730      Cu  0.15555181  0.63885854  0.20058782     0.43900
N731        N  0.18013527  0.64081237  0.22419276    -0.33900
N732        N  0.16530172  0.64050747  0.22203175    -0.28100
C733        C  0.15830297  0.64237456  0.23551450    -0.04200
C734        C  0.16930600  0.64403864  0.24666875     0.08000
C735        C  0.18299171  0.64297745  0.23902097     0.01800
H736        H  0.14612536  0.64287931  0.23700993     0.09400
H737        H  0.19422618  0.64428962  0.24379331     0.08500
N738        N  0.14877504  0.63806732  0.17796147    -0.35300
N739        N  0.15818494  0.63821906  0.16623081    -0.27500
C740        C  0.14999741  0.63762963  0.15330647    -0.02800
C741        C  0.13470429  0.63706153  0.15707053     0.05900
C742        C  0.13442450  0.63734552  0.17281097     0.03900
H743        H  0.15482777  0.63765617  0.14199797     0.09100
H744        H  0.12448374  0.63691165  0.18002673     0.07900
N745        N  0.16260129  0.66530805  0.33448788    -0.26500
N746        N  0.16626828  0.67888189  0.32922429    -0.34400
C747        C  0.16852045  0.67801096  0.31416699     0.01800
C748        C  0.16606234  0.66318994  0.30965539     0.07900
C749        C  0.16239991  0.65539681  0.32283414    -0.05200
H750        H  0.17132227  0.68756952  0.30696321     0.08500
H751        H  0.15929048  0.64355276  0.32379389     0.09700
Cu752      Cu  0.16707876  0.69830596  0.34227353     0.44200
Cu753      Cu  0.15724012  0.66132042  0.35714242     0.42000
Cu754      Cu  0.15675147  0.69494854  0.38156538     0.43900
N755        N  0.16738607  0.71636669  0.35716576    -0.33900
N756        N  0.16368904  0.71526892  0.37168038    -0.28100
C757        C  0.16582764  0.72886448  0.37835180    -0.04200
C758        C  0.17105525  0.73895920  0.36743914     0.08000
C759        C  0.17189423  0.73061753  0.35416505     0.01800
H760        H  0.16393350  0.73117102  0.39028022     0.09400
H761        H  0.17591989  0.73450278  0.34321341     0.08500
N762        N  0.15221627  0.67298267  0.38906216    -0.35300
N763        N  0.15267486  0.66076723  0.38031948    -0.27500
C764        C  0.15094121  0.64833239  0.38906684    -0.02800
C765        C  0.14934346  0.65290294  0.40404942     0.05900
C766        C  0.15007806  0.66862447  0.40355468     0.03900
H767        H  0.15169559  0.63678247  0.38493779     0.09100
H768        H  0.14987994  0.67631075  0.41314247     0.07900
N769        N  0.36568866  0.67285116  0.13153959    -0.26500
N770        N  0.35228441  0.67916315  0.13405655    -0.34400
C771        C  0.35395014  0.69433707  0.13445760     0.01800
C772        C  0.36910719  0.69775833  0.13211478     0.07900
C773        C  0.37622397  0.68384839  0.13030026    -0.05200
H774        H  0.34486169  0.70229628  0.13673522     0.08500
H775        H  0.38819982  0.68184448  0.12844320     0.09700
Cu776      Cu  0.33237686  0.66702739  0.13790678     0.44200
Cu777      Cu  0.36925610  0.64957876  0.13078679     0.42000
Cu778      Cu  0.33611066  0.62647302  0.13912213     0.43900
N779        N  0.31449299  0.65254989  0.14328957    -0.33900
N780        N  0.31599267  0.63763728  0.14402749    -0.28100
C781        C  0.30282098  0.63150825  0.14874277    -0.04200
C782        C  0.29241679  0.64311332  0.15101912     0.08000
C783        C  0.30025104  0.65629987  0.14737722     0.01800
H784        H  0.30109114  0.61951296  0.15074858     0.09400
H785        H  0.29598014  0.66781589  0.14788048     0.08500
N786        N  0.35754972  0.61772693  0.13497078    -0.35300
N787        N  0.36968275  0.62606714  0.13207144    -0.27500
C788        C  0.38191908  0.61692851  0.13128966    -0.02800
C789        C  0.37723914  0.60213992  0.13384966     0.05900
C790        C  0.36171231  0.60308751  0.13603726     0.03900
H791        H  0.39344659  0.62084487  0.12971295     0.09100
H792        H  0.35407530  0.59387829  0.13880375     0.07900
N793        N  0.19631582  0.82566766  0.37130237    -0.26500
N794        N  0.20997615  0.81947189  0.37064284    -0.34400
C795        C  0.20862799  0.80428469  0.37104096     0.01800
C796        C  0.19338550  0.80071279  0.37201568     0.07900
C797        C  0.18588545  0.81454776  0.37215898    -0.05200
H798        H  0.21803140  0.79640984  0.37020877     0.08500
H799        H  0.17374997  0.81639212  0.37257404     0.09700
Cu800      Cu  0.22983456  0.83171049  0.36828407     0.44200
Cu801      Cu  0.19255605  0.84890093  0.37016615     0.42000
Cu802      Cu  0.22617229  0.87205942  0.36365415     0.43900
N803        N  0.24802370  0.84594450  0.36428413    -0.33900
N804        N  0.24666031  0.86074824  0.36225981    -0.28100
C805        C  0.26030084  0.86656225  0.35868551    -0.04200
C806        C  0.27075571  0.85482085  0.35845974     0.08000
C807        C  0.26257716  0.84192478  0.36214863     0.01800
H808        H  0.26232849  0.87834477  0.35585063     0.09400
H809        H  0.26677343  0.83038461  0.36272210     0.08500
N810        N  0.20452979  0.88073046  0.36610108    -0.35300
N811        N  0.19225466  0.87238760  0.36835782    -0.27500
C812        C  0.18013200  0.88162603  0.36948261    -0.02800
C813        C  0.18510350  0.89643247  0.36794760     0.05900
C814        C  0.20059124  0.89546526  0.36582643     0.03900
H815        H  0.16861366  0.87786469  0.37146450     0.09100
H816        H  0.20842804  0.90478093  0.36421370     0.07900
N817        N  0.35700573  0.86310021  0.33282369    -0.26500
N818        N  0.35114348  0.86236956  0.31902422    -0.34400
C819        C  0.33599155  0.86113490  0.32022219     0.01800
C820        C  0.33217236  0.86091899  0.33550970     0.07900
C821        C  0.34580665  0.86220675  0.34315383    -0.05200
H822        H  0.32834555  0.86012901  0.31066209     0.08500
H823        H  0.34754263  0.86204485  0.35532306     0.09700
Cu824      Cu  0.36403422  0.86164220  0.29924298     0.44200
Cu825      Cu  0.37988915  0.86462391  0.33716652     0.42000
Cu826      Cu  0.40463402  0.86303111  0.30445218     0.43900
N827        N  0.37955586  0.85905977  0.28162441    -0.33900
N828        N  0.39442132  0.85951317  0.28358988    -0.28100
C829        C  0.40133989  0.85664876  0.27026353    -0.04200
C830        C  0.39029539  0.85425975  0.25935105     0.08000
C831        C  0.37661693  0.85589901  0.26696129     0.01800
H832        H  0.41350855  0.85608676  0.26870351     0.09400
H833        H  0.36536434  0.85442061  0.26228329     0.08500
N834        N  0.41222745  0.86513367  0.32658587    -0.35300
N835        N  0.40316978  0.86558196  0.33855457    -0.27500
C836        C  0.41160398  0.86598652  0.35125561    -0.02800
C837        C  0.42671211  0.86576611  0.34705472     0.05900
C838        C  0.42669837  0.86528634  0.33133992     0.03900
H839        H  0.40706270  0.86590094  0.36268479     0.09100
H840        H  0.43647961  0.86468523  0.32391930     0.07900
N841        N  0.39962659  0.83271529  0.17166299    -0.26500
N842        N  0.39611291  0.81904110  0.17677785    -0.34400
C843        C  0.39371907  0.81973600  0.19183081     0.01800
C844        C  0.39592721  0.83454050  0.19655423     0.07900
C845        C  0.39960074  0.84250609  0.18344441    -0.05200
H846        H  0.39080806  0.81008899  0.19887015     0.08500
H847        H  0.40241649  0.85443185  0.18260005     0.09700
Cu848      Cu  0.39545633  0.79970848  0.16350659     0.44200
Cu849      Cu  0.40479150  0.83697503  0.14890588     0.42000
Cu850      Cu  0.40632388  0.80330012  0.12442848     0.43900
N851        N  0.39554053  0.78165397  0.14852599    -0.33900
N852        N  0.39947640  0.78289291  0.13408412    -0.28100
C853        C  0.39746757  0.76937847  0.12722448    -0.04200
C854        C  0.39208204  0.75917181  0.13793098     0.08000
C855        C  0.39101955  0.76734747  0.15129614     0.01800
H856        H  0.39945421  0.76722822  0.11528245     0.09400
H857        H  0.38677365  0.76332829  0.16211589     0.08500
N858        N  0.41050391  0.82530019  0.11698574    -0.35300
N859        N  0.40958657  0.83754399  0.12567208    -0.27500
C860        C  0.41175485  0.84993835  0.11694930    -0.02800
C861        C  0.41423213  0.84524831  0.10212112     0.05900
C862        C  0.41338796  0.82957785  0.10259214     0.03900
H863        H  0.41129133  0.86151671  0.12103880     0.09100
H864        H  0.41423147  0.82187227  0.09305155     0.07900
N865        N  0.66765614  0.16567924  0.17647507    -0.26500
N866        N  0.66720573  0.17985705  0.18138187    -0.34400
C867        C  0.66845511  0.17999504  0.19659220     0.01800
C868        C  0.66972752  0.16517344  0.20159537     0.07900
C869        C  0.66916593  0.15636767  0.18853030    -0.05200
H870        H  0.66820609  0.19014555  0.20351579     0.08500
H871        H  0.66973268  0.14411107  0.18785505     0.09700
Cu872      Cu  0.66507431  0.19846343  0.16734097     0.44200
Cu873      Cu  0.66598002  0.15999742  0.15354401     0.42000
Cu874      Cu  0.66438200  0.19234475  0.12709887     0.43900
N875        N  0.66615012  0.21585538  0.15172620    -0.33900
N876        N  0.66637130  0.21380570  0.13685499    -0.28100
C877        C  0.66917138  0.22725303  0.13007327    -0.04200
C878        C  0.67080551  0.23820148  0.14129532     0.08000
C879        C  0.66868496  0.23054436  0.15483760     0.01800
H880        H  0.67071614  0.22879284  0.11797158     0.09400
H881        H  0.66972319  0.23515631  0.16618581     0.08500
N882        N  0.66335101  0.16961580  0.12057295    -0.35300
N883        N  0.66409449  0.15793131  0.13001998    -0.27500
C884        C  0.66382601  0.14496181  0.12189252    -0.02800
C885        C  0.66287407  0.14863646  0.10660286     0.05900
C886        C  0.66253115  0.16436778  0.10624746     0.03900
H887        H  0.66468345  0.13370020  0.12674134     0.09100
H888        H  0.66198207  0.17150976  0.09625337     0.07900
N889        N  0.69209338  0.32610297  0.13577265    -0.26500
N890        N  0.70589197  0.32077064  0.13318609    -0.34400
C891        C  0.70543131  0.30554120  0.13287168     0.01800
C892        C  0.69066443  0.30093479  0.13550684     0.07900
C893        C  0.68246759  0.31429825  0.13723407    -0.05200
H894        H  0.71525269  0.29832658  0.13125646     0.08500
H895        H  0.67051278  0.31535185  0.13985012     0.09700
Cu896      Cu  0.72527976  0.33392602  0.13197375     0.44200
Cu897      Cu  0.68745173  0.34921152  0.13786372     0.42000
Cu898      Cu  0.72139376  0.37351419  0.13836684     0.43900
N899        N  0.74370657  0.34804768  0.13530943    -0.33900
N900        N  0.74231276  0.36270410  0.13815056    -0.28100
C901        C  0.75602876  0.36837182  0.14175412    -0.04200
C902        C  0.76657193  0.35667268  0.14115723     0.08000
C903        C  0.75832234  0.34397985  0.13691745     0.01800
H904        H  0.75804252  0.37995330  0.14532122     0.09400
H905        H  0.76249510  0.33247250  0.13578999     0.08500
N906        N  0.69924042  0.38148251  0.13882662    -0.35300
N907        N  0.68696414  0.37284021  0.13897674    -0.27500
C908        C  0.67462210  0.38183730  0.13990768    -0.02800
C909        C  0.67936485  0.39684566  0.14031445     0.05900
C910        C  0.69503605  0.39613275  0.13951671     0.03900
H911        H  0.66306842  0.37773400  0.14049320     0.09100
H912        H  0.70286792  0.40558479  0.13952838     0.07900
N913        N  0.70436043  0.12873081  0.33722703    -0.26500
N914        N  0.70966872  0.12770857  0.32320729    -0.34400
C915        C  0.72487519  0.12652347  0.32366380     0.01800
C916        C  0.72954682  0.12711299  0.33869417     0.07900
C917        C  0.71615904  0.12842793  0.34696991    -0.05200
H918        H  0.73203007  0.12583378  0.31369063     0.08500
H919        H  0.71511720  0.12974274  0.35914990     0.09700
Cu920      Cu  0.69646043  0.13039044  0.30390716     0.44200
Cu921      Cu  0.68128898  0.13143771  0.34219780     0.42000
Cu922      Cu  0.65661073  0.13775610  0.30947845     0.43900
N923        N  0.68197760  0.13690909  0.28652914    -0.33900
N924        N  0.66736698  0.13970821  0.28851988    -0.28100
C925        C  0.66143324  0.14465571  0.27531238    -0.04200
C926        C  0.67288941  0.14503027  0.26450705     0.08000
C927        C  0.68573993  0.14000994  0.27204439     0.01800
H928        H  0.64976247  0.14818078  0.27381445     0.09400
H929        H  0.69707603  0.13897159  0.26741572     0.08500
N930        N  0.64888794  0.13662685  0.33180377    -0.35300
N931        N  0.65776615  0.13437583  0.34372319    -0.27500
C932        C  0.64918438  0.13471814  0.35641769    -0.02800
C933        C  0.63421693  0.13737697  0.35230016     0.05900
C934        C  0.63449488  0.13849041  0.33660145     0.03900
H935        H  0.65355532  0.13341786  0.36783048     0.09100
H936        H  0.62492507  0.14061184  0.32919882     0.07900
N937        N  0.85369887  0.36286028  0.16600346    -0.26500
N938        N  0.84776426  0.36205274  0.17978147    -0.34400
C939        C  0.83259066  0.36106811  0.17860883     0.01800
C940        C  0.82869766  0.36109871  0.16335007     0.07900
C941        C  0.84241780  0.36229565  0.15568435    -0.05200
H942        H  0.82495227  0.36010904  0.18819576     0.08500
H943        H  0.84412391  0.36229160  0.14350750     0.09700
Cu944      Cu  0.86049702  0.36095494  0.19961586     0.44200
Cu945      Cu  0.87696209  0.36389584  0.16213260     0.42000
Cu946      Cu  0.90100680  0.35852305  0.19584761     0.43900
N947        N  0.87495745  0.35755235  0.21794726    -0.33900
N948        N  0.88984815  0.35630411  0.21662615    -0.28100
C949        C  0.89575328  0.35287982  0.23034193    -0.04200
C950        C  0.88399053  0.35190913  0.24082149     0.08000
C951        C  0.87100119  0.35506615  0.23249973     0.01800
H952        H  0.90765313  0.35066965  0.23241270     0.09400
H953        H  0.85943028  0.35511223  0.23662652     0.08500
N954        N  0.90919939  0.36124093  0.17378140    -0.35300
N955        N  0.90056154  0.36341485  0.16167282    -0.27500
C956        C  0.90949349  0.36452621  0.14930087    -0.02800
C957        C  0.92448100  0.36287480  0.15377725     0.05900
C958        C  0.92382348  0.36083193  0.16938198     0.03900
H959        H  0.90534833  0.36625061  0.13785957     0.09100
H960        H  0.93328487  0.35886290  0.17696501     0.07900
N961        N  0.89134255  0.32906174  0.32884611    -0.26500
N962        N  0.88943324  0.31516592  0.32348597    -0.34400
C963        C  0.88776353  0.31587548  0.30830916     0.01800
C964        C  0.88845119  0.33095984  0.30377866     0.07900
C965        C  0.89073286  0.33898259  0.31718265    -0.05200
H966        H  0.88616563  0.30607056  0.30108169     0.08500
H967        H  0.89169273  0.35116351  0.31842132     0.09700
Cu968      Cu  0.88854560  0.29575428  0.33696010     0.44200
Cu969      Cu  0.89493205  0.33379107  0.35183016     0.42000
Cu970      Cu  0.89557902  0.30089264  0.37698015     0.43900
N971        N  0.88752989  0.27813041  0.35268716    -0.33900
N972        N  0.89035819  0.27993436  0.36732563    -0.28100
C973        C  0.88846443  0.26652296  0.37445146    -0.04200
C974        C  0.88412619  0.25573411  0.36381066     0.08000
C975        C  0.88366463  0.26356636  0.35013704     0.01800
H976        H  0.88993279  0.26481023  0.38653654     0.09400
H977        H  0.88037691  0.25908948  0.33917668     0.08500
N978        N  0.89880021  0.32316158  0.38432228    -0.35300
N979        N  0.89852872  0.33515999  0.37526078    -0.27500
C980        C  0.90026359  0.34779604  0.38374171    -0.02800
C981        C  0.90160885  0.34356730  0.39887095     0.05900
C982        C  0.90066846  0.32785493  0.39875669     0.03900
H983        H  0.90005419  0.35924990  0.37928970     0.09100
H984        H  0.90099334  0.32038279  0.40851585     0.07900
N985        N  0.86320519  0.16779038  0.37340563    -0.26500
N986        N  0.84917339  0.17309646  0.37275318    -0.34400
C987        C  0.84965458  0.18833480  0.37169035     0.01800
C988        C  0.86470729  0.19289221  0.37168574     0.07900
C989        C  0.87298210  0.17953024  0.37279252    -0.05200
H990        H  0.83976681  0.19556613  0.37068704     0.08500
H991        H  0.88520731  0.17841308  0.37308058     0.09700
Cu992      Cu  0.82998569  0.15933266  0.37248935     0.44200
Cu993      Cu  0.86828484  0.14474881  0.37464393     0.42000
Cu994      Cu  0.83611864  0.11874962  0.37225407     0.43900
N995        N  0.81267800  0.14352775  0.36964648    -0.33900
N996        N  0.81489943  0.12867582  0.36928216    -0.28100
C997        C  0.80179096  0.12178276  0.36548047    -0.04200
C998        C  0.79079185  0.13283671  0.36330154     0.08000
C999        C  0.79811287  0.14646572  0.36614705     0.01800
H1000       H  0.80059010  0.10971108  0.36354486     0.09400
H1001       H  0.79340144  0.15775462  0.36491771     0.08500
N1002       N  0.85854612  0.11181963  0.37481694    -0.35300
N1003       N  0.87022383  0.12122444  0.37559502    -0.27500
C1004       C  0.88306628  0.11306874  0.37715628    -0.02800
C1005       C  0.87929107  0.09781405  0.37741860     0.05900
C1006       C  0.86365925  0.09745454  0.37590003     0.03900
H1007       H  0.89430815  0.11789278  0.37815581     0.09100
H1008       H  0.85652618  0.08746678  0.37553118     0.07900
N1009       N  0.36005629  0.32757909  0.13846009    -0.26500
N1010       N  0.34619372  0.32236108  0.13614057    -0.34400
C1011       C  0.34664990  0.30714953  0.13511659     0.01800
C1012       C  0.36151797  0.30244542  0.13695137     0.07900
C1013       C  0.36974835  0.31572618  0.13898923    -0.05200
H1014       H  0.33679541  0.30001159  0.13351685     0.08500
H1015       H  0.38179377  0.31665725  0.14116641     0.09700
Cu1016     Cu  0.32696443  0.33581600  0.13591335     0.44200
Cu1017     Cu  0.36455782  0.35062467  0.14143370     0.42000
Cu1018     Cu  0.33088385  0.37563920  0.14245639     0.43900
N1019       N  0.30867352  0.35012266  0.13932118    -0.33900
N1020       N  0.31000892  0.36482700  0.14195526    -0.28100
C1021       C  0.29630202  0.37048297  0.14570273    -0.04200
C1022       C  0.28588216  0.35870645  0.14548767     0.08000
C1023       C  0.29413468  0.34600424  0.14127824     0.01800
H1024       H  0.29426924  0.38205239  0.14931774     0.09400
H1025       H  0.29005886  0.33443845  0.14059078     0.08500
N1026       N  0.35315106  0.38310347  0.14385675    -0.35300
N1027       N  0.36526771  0.37419070  0.14362250    -0.27500
C1028       C  0.37778052  0.38288279  0.14470105    -0.02800
C1029       C  0.37332292  0.39794105  0.14562888     0.05900
C1030       C  0.35764371  0.39763367  0.14508569     0.03900
H1031       H  0.38928759  0.37857827  0.14454354     0.09100
H1032       H  0.35003441  0.40728187  0.14550311     0.07900
N1033       N  0.39864794  0.16804593  0.17468022    -0.26500
N1034       N  0.39822800  0.18206061  0.18006588    -0.34400
C1035       C  0.39867306  0.18154840  0.19533567     0.01800
C1036       C  0.39941619  0.16648545  0.19978923     0.07900
C1037       C  0.39941796  0.15824278  0.18639651    -0.05200
H1038       H  0.39804650  0.19139383  0.20266733     0.08500
H1039       H  0.39937682  0.14600680  0.18527370     0.09700
Cu1040     Cu  0.39572140  0.20119351  0.16654004     0.44200
Cu1041     Cu  0.39703303  0.16287967  0.15169967     0.42000
Cu1042     Cu  0.39108421  0.19496682  0.12625288     0.43900
N1043       N  0.39092663  0.21840046  0.15117104    -0.33900
N1044       N  0.38910991  0.21619554  0.13642148    -0.28100
C1045       C  0.38488061  0.22938899  0.12990544    -0.04200
C1046       C  0.38394315  0.24038421  0.14112650     0.08000
C1047       C  0.38790017  0.23300467  0.15443826     0.01800
H1048       H  0.38199308  0.23070659  0.11803027     0.09400
H1049       H  0.38797129  0.23776359  0.16577376     0.08500
N1050       N  0.39286604  0.17254202  0.11903545    -0.35300
N1051       N  0.39498694  0.16086147  0.12825778    -0.27500
C1052       C  0.39552361  0.14801721  0.11997018    -0.02800
C1053       C  0.39363553  0.15178323  0.10479960     0.05900
C1054       C  0.39200152  0.16743139  0.10465866     0.03900
H1055       H  0.39705424  0.13675649  0.12465731     0.09100
H1056       H  0.39036730  0.17459810  0.09480237     0.07900
N1057       N  0.36203205  0.12572321  0.33299756    -0.26500
N1058       N  0.35716087  0.12493645  0.31880036    -0.34400
C1059       C  0.34191195  0.12443514  0.31883465     0.01800
C1060       C  0.33692085  0.12497505  0.33374321     0.07900
C1061       C  0.34998807  0.12570322  0.34242386    -0.05200
H1062       H  0.33494192  0.12452998  0.30871701     0.08500
H1063       H  0.35065657  0.12711364  0.35461888     0.09700
Cu1064     Cu  0.37098787  0.12708511  0.29978568     0.44200
Cu1065     Cu  0.38458257  0.12910880  0.33889674     0.42000
Cu1066     Cu  0.40945806  0.13754587  0.30692818     0.43900
N1067       N  0.38597898  0.13336976  0.28267999    -0.33900
N1068       N  0.40013701  0.13748696  0.28536036    -0.28100
C1069       C  0.40640700  0.14263398  0.27239338    -0.04200
C1070       C  0.39563732  0.14177206  0.26097917     0.08000
C1071       C  0.38284866  0.13575692  0.26791555     0.01800
H1072       H  0.41765280  0.14747975  0.27154321     0.09400
H1073       H  0.37183427  0.13400526  0.26278759     0.08500
N1074       N  0.41639691  0.13733225  0.32938274    -0.35300
N1075       N  0.40745245  0.13432236  0.34108364    -0.27500
C1076       C  0.41570942  0.13492879  0.35393939    -0.02800
C1077       C  0.43053197  0.13840736  0.35006886     0.05900
C1078       C  0.43054323  0.13986092  0.33444068     0.03900
H1079       H  0.41134768  0.13261325  0.36520231     0.09100
H1080       H  0.44018878  0.14233466  0.32723730     0.07900
N1081       N  0.20401303  0.16870565  0.36917269    -0.26500
N1082       N  0.21819962  0.17345664  0.37013657    -0.34400
C1083       C  0.21825880  0.18868323  0.37104868     0.01800
C1084       C  0.20338873  0.19375299  0.37047702     0.07900
C1085       C  0.19466042  0.18076721  0.36933851    -0.05200
H1086       H  0.22840916  0.19557394  0.37143747     0.08500
H1087       H  0.18246865  0.18015013  0.36803852     0.09700
Cu1088     Cu  0.23685559  0.15931846  0.36799234     0.44200
Cu1089     Cu  0.19799329  0.14621345  0.36674525     0.42000
Cu1090     Cu  0.22877041  0.11958043  0.36120645     0.43900
N1091       N  0.25323973  0.14350689  0.36210987    -0.33900
N1092       N  0.25032415  0.12903728  0.35937448    -0.28100
C1093       C  0.26317590  0.12217740  0.35471099    -0.04200
C1094       C  0.27471054  0.13286292  0.35447127     0.08000
C1095       C  0.26798137  0.14623730  0.35929050     0.01800
H1096       H  0.26395014  0.11040849  0.35126388     0.09400
H1097       H  0.27331736  0.15724958  0.36031128     0.08500
N1098       N  0.20611692  0.11325711  0.36332116    -0.35300
N1099       N  0.19489488  0.12304877  0.36527010    -0.27500
C1100       C  0.18168562  0.11546667  0.36616405    -0.02800
C1101       C  0.18472024  0.10013327  0.36469120     0.05900
C1102       C  0.20032072  0.09914322  0.36291017     0.03900
H1103       H  0.17068453  0.12075161  0.36760128     0.09100
H1104       H  0.20696274  0.08890647  0.36141192     0.07900
N1105       N  0.19900133  0.36085248  0.17070632    -0.26500
N1106       N  0.20451352  0.36022958  0.18466215    -0.34400
C1107       C  0.21974914  0.36025795  0.18397079     0.01800
C1108       C  0.22409982  0.36075912  0.16884489     0.07900
C1109       C  0.21061168  0.36114909  0.16075843    -0.05200
H1110       H  0.22711870  0.35974628  0.19378619     0.08500
H1111       H  0.20931393  0.36131782  0.14853510     0.09700
Cu1112     Cu  0.19127661  0.35835017  0.20408618     0.44200
Cu1113     Cu  0.17595838  0.36121056  0.16587270     0.42000
Cu1114     Cu  0.15088965  0.35915560  0.19873187     0.43900
N1115       N  0.17586016  0.35519118  0.22164289    -0.33900
N1116       N  0.16099813  0.35558880  0.21968244    -0.28100
C1117       C  0.15411935  0.35244301  0.23296909    -0.04200
C1118       C  0.16519943  0.34985145  0.24382866     0.08000
C1119       C  0.17884974  0.35172578  0.23622727     0.01800
H1120       H  0.14195757  0.35175569  0.23451245     0.09400
H1121       H  0.19012384  0.35016265  0.24083703     0.08500
N1122       N  0.14340201  0.36153351  0.17653863    -0.35300
N1123       N  0.15246204  0.36218160  0.16456305    -0.27500
C1124       C  0.14394587  0.36337636  0.15193293    -0.02800
C1125       C  0.12880712  0.36346196  0.15617548     0.05900
C1126       C  0.12890653  0.36227601  0.17185111     0.03900
H1127       H  0.14844517  0.36406816  0.14050813     0.09100
H1128       H  0.11914234  0.36170086  0.17929525     0.07900
N1129       N  0.15884446  0.32575761  0.33094792    -0.26500
N1130       N  0.16256699  0.31225994  0.32552910    -0.34400
C1131       C  0.16354623  0.31305222  0.31031308     0.01800
C1132       C  0.16028213  0.32777188  0.30589095     0.07900
C1133       C  0.15732758  0.33552507  0.31927633    -0.05200
H1134       H  0.16689609  0.30371893  0.30304444     0.08500
H1135       H  0.15463442  0.34745826  0.32047275     0.09700
Cu1136     Cu  0.16745069  0.29370451  0.33902932     0.44200
Cu1137     Cu  0.15763638  0.33044596  0.35404078     0.42000
Cu1138     Cu  0.17233313  0.30058734  0.37893659     0.43900
N1139       N  0.17389991  0.27715334  0.35434139    -0.33900
N1140       N  0.17600598  0.27968503  0.36898498    -0.28100
C1141       C  0.18080963  0.26680210  0.37564845    -0.04200
C1142       C  0.18176772  0.25566648  0.36460690     0.08000
C1143       C  0.17726978  0.26261065  0.35125870     0.01800
H1144       H  0.18370353  0.26572167  0.38754750     0.09400
H1145       H  0.17674971  0.25754486  0.34006973     0.08500
N1146       N  0.16621131  0.32203140  0.38619574    -0.35300
N1147       N  0.16048340  0.33275233  0.37734978    -0.27500
C1148       C  0.15773381  0.34518830  0.38580475    -0.02800
C1149       C  0.16201925  0.34211834  0.40061809     0.05900
C1150       C  0.16730531  0.32734559  0.40044905     0.03900
H1151       H  0.15327677  0.35577738  0.38143037     0.09100
H1152       H  0.17165333  0.32092083  0.40998680     0.07900
N1153       N  0.56240635  0.14072853  0.40786737    -0.26500
N1154       N  0.55504967  0.14379686  0.39514807    -0.34400
C1155       C  0.56512269  0.14500294  0.38369510     0.01800
C1156       C  0.57956881  0.14255859  0.38944541     0.07900
C1157       C  0.57737510  0.13993082  0.40484590    -0.05200
H1158       H  0.56211001  0.14698957  0.37194251     0.08500
H1159       H  0.58600547  0.13737214  0.41320289     0.09700
Cu1160     Cu  0.53154550  0.14509778  0.39395289     0.44200
Cu1161     Cu  0.55146700  0.13714324  0.42855915     0.42000
Cu1162     Cu  0.51009246  0.13948020  0.42889155     0.43900
N1163       N  0.50802993  0.14406438  0.39501335    -0.33900
N1164       N  0.50014600  0.14195875  0.40764081    -0.28100
C1165       C  0.48530805  0.14091617  0.40410827    -0.04200
C1166       C  0.48383135  0.14239029  0.38850990     0.08000
C1167       C  0.49845064  0.14441703  0.38315035     0.01800
H1168       H  0.47633710  0.13871443  0.41221724     0.09400
H1169       H  0.50191876  0.14566770  0.37141706     0.08500
N1170       N  0.52321761  0.13604584  0.44819418    -0.35300
N1171       N  0.53818542  0.13485967  0.44802456    -0.27500
C1172       C  0.54311011  0.13243942  0.46229664    -0.02800
C1173       C  0.53067565  0.13218354  0.47196474     0.05900
C1174       C  0.51825961  0.13452559  0.46258452     0.03900
H1175       H  0.55490067  0.13099365  0.46539923     0.09100
H1176       H  0.50647728  0.13523899  0.46598551     0.07900
N1177       N  0.43005377  0.46830538  0.15040981    -0.26500
N1178       N  0.41736296  0.47629583  0.14963772    -0.34400
C1179       C  0.40549185  0.46676855  0.14910551     0.01800
C1180       C  0.41090948  0.45202020  0.14942197     0.07900
C1181       C  0.42655635  0.45341813  0.15031039    -0.05200
H1182       H  0.39377000  0.47033621  0.14821074     0.08500
H1183       H  0.43480688  0.44430544  0.15040959     0.09700
Cu1184     Cu  0.41649252  0.49970442  0.14793251     0.44200
Cu1185     Cu  0.45146569  0.47817906  0.15074449     0.42000
Cu1186     Cu  0.45187793  0.51950711  0.14637555     0.43900
N1187       N  0.41809316  0.52286893  0.14441726    -0.33900
N1188       N  0.43113832  0.53021992  0.14369657    -0.28100
C1189       C  0.42837863  0.54506423  0.14127929    -0.04200
C1190       C  0.41282926  0.54708928  0.14048132     0.08000
C1191       C  0.40666462  0.53280040  0.14252423     0.01800
H1192       H  0.43701057  0.55375921  0.14051049     0.09400
H1193       H  0.39474372  0.52987021  0.14278047     0.08500
N1194       N  0.47113264  0.50623063  0.14873923    -0.35300
N1195       N  0.47107388  0.49128049  0.15027357    -0.27500
C1196       C  0.48549509  0.48636097  0.15142264    -0.02800
C1197       C  0.49504195  0.49881539  0.15060113     0.05900
C1198       C  0.48554381  0.51120285  0.14888550     0.03900
H1199       H  0.48878256  0.47460836  0.15290224     0.09100
H1200       H  0.48885580  0.52298021  0.14777533     0.07900
N1201       N  0.15967282  0.39832978  0.47118301    -0.26500
N1202       N  0.16098840  0.38544184  0.47877980    -0.34400
C1203       C  0.16097035  0.37380243  0.46892899     0.01800
C1204       C  0.15943885  0.37965014  0.45445798     0.07900
C1205       C  0.15864941  0.39522959  0.45623696    -0.05200
H1206       H  0.16225826  0.36198070  0.47204396     0.08500
H1207       H  0.15790297  0.40367638  0.44733483     0.09700
Cu1208     Cu  0.16293826  0.38421565  0.50212661     0.44200
Cu1209     Cu  0.16033149  0.41935854  0.48170686     0.42000
Cu1210     Cu  0.16241867  0.41932010  0.52330641     0.43900
N1211       N  0.16361978  0.38522570  0.52555905    -0.33900
N1212       N  0.16350642  0.39799246  0.53344920    -0.28100
C1213       C  0.16387130  0.39457331  0.54836677    -0.04200
C1214       C  0.16414731  0.37888227  0.54989454     0.08000
C1215       C  0.16394524  0.37338544  0.53517058     0.01800
H1216       H  0.16390601  0.40289364  0.55740969     0.09400
H1217       H  0.16378103  0.36160626  0.53167503     0.08500
N1218       N  0.16167371  0.43885230  0.50998953    -0.35300
N1219       N  0.16128852  0.43878514  0.49496149    -0.27500
C1220       C  0.16118076  0.45318700  0.48989766    -0.02800
C1221       C  0.16132709  0.46286378  0.50229708     0.05900
C1222       C  0.16163998  0.45334360  0.51485506     0.03900
H1223       H  0.16095356  0.45636519  0.47802121     0.09100
H1224       H  0.16165073  0.45669131  0.52668445     0.07900
N1225       N  0.90794260  0.40053334  0.46956935    -0.26500
N1226       N  0.90836016  0.38766021  0.47731591    -0.34400
C1227       C  0.90743144  0.37592012  0.46760267     0.01800
C1228       C  0.90635979  0.38156232  0.45296941     0.07900
C1229       C  0.90677698  0.39724770  0.45463023    -0.05200
H1230       H  0.90740667  0.36409935  0.47096947     0.08500
H1231       H  0.90592578  0.40563089  0.44567788     0.09700
Cu1232     Cu  0.90953186  0.38627990  0.50081927     0.44200
Cu1233     Cu  0.90802133  0.42182684  0.48013785     0.42000
Cu1234     Cu  0.90864419  0.42076328  0.52204278     0.43900
N1235       N  0.90998527  0.38685296  0.52437577    -0.33900
N1236       N  0.90987435  0.39958927  0.53229044    -0.28100
C1237       C  0.91012949  0.39619400  0.54721137    -0.04200
C1238       C  0.91031267  0.38050438  0.54877690     0.08000
C1239       C  0.91018901  0.37500697  0.53401236     0.01800
H1240       H  0.91013410  0.40453953  0.55622982     0.09400
H1241       H  0.90998806  0.36323136  0.53051278     0.08500
N1242       N  0.90640735  0.44040287  0.50921404    -0.35300
N1243       N  0.90628764  0.44094198  0.49417458    -0.27500
C1244       C  0.90418996  0.45547019  0.48981335    -0.02800
C1245       C  0.90290536  0.46445122  0.50270551     0.05900
C1246       C  0.90436903  0.45448608  0.51476132     0.03900
H1247       H  0.90348807  0.45920688  0.47811994     0.09100
H1248       H  0.90368647  0.45721938  0.52672955     0.07900
N1249       N  0.49827350  0.86468141  0.40180847    -0.26500
N1250       N  0.50565748  0.86552186  0.38874798    -0.34400
C1251       C  0.49555212  0.86557899  0.37733700     0.01800
C1252       C  0.48116309  0.86474809  0.38355133     0.07900
C1253       C  0.48328043  0.86420749  0.39908363    -0.05200
H1254       H  0.49845926  0.86618422  0.36540200     0.08500
H1255       H  0.47460842  0.86332256  0.40775171     0.09700
Cu1256     Cu  0.52905922  0.86650387  0.38688331     0.44200
Cu1257     Cu  0.50874959  0.86373398  0.42268890     0.42000
Cu1258     Cu  0.54954474  0.86544638  0.42244589     0.43900
N1259       N  0.55246655  0.86785406  0.38843957    -0.33900
N1260       N  0.55987159  0.86773350  0.40149335    -0.28100
C1261       C  0.57483441  0.86867878  0.39874107    -0.04200
C1262       C  0.57699138  0.86931440  0.38318430     0.08000
C1263       C  0.56255224  0.86879093  0.37699777     0.01800
H1264       H  0.58350699  0.86870156  0.40743588     0.09400
H1265       H  0.55960710  0.86878355  0.36506267     0.08500
N1266       N  0.53680120  0.86243295  0.44192102    -0.35300
N1267       N  0.52181749  0.86192965  0.44198647    -0.27500
C1268       C  0.51691348  0.86011583  0.45632114    -0.02800
C1269       C  0.52944162  0.85941619  0.46572903     0.05900
C1270       C  0.54187450  0.86090200  0.45623197     0.03900
H1271       H  0.50510461  0.85958135  0.45965579     0.09100
H1272       H  0.55371423  0.86096327  0.45948001     0.07900
N1273       N  0.43443842  0.47148803  0.87086556    -0.26500
N1274       N  0.42148711  0.47908512  0.87145472    -0.34400
C1275       C  0.40989321  0.46918675  0.87055814     0.01800
C1276       C  0.41585505  0.45468636  0.86942740     0.07900
C1277       C  0.43143280  0.45655658  0.86969394    -0.05200
H1278       H  0.39801031  0.47229028  0.87089698     0.08500
H1279       H  0.43995292  0.44771783  0.86906275     0.09700
Cu1280     Cu  0.42020967  0.50256003  0.87340578     0.44200
Cu1281     Cu  0.45565123  0.48171304  0.87133823     0.42000
Cu1282     Cu  0.45629376  0.52268416  0.87294663     0.43900
N1283       N  0.42214243  0.52606355  0.87386459    -0.33900
N1284       N  0.43524338  0.53339135  0.87366156    -0.28100
C1285       C  0.43250982  0.54843821  0.87347814    -0.04200
C1286       C  0.41695783  0.55067753  0.87351631     0.08000
C1287       C  0.41074520  0.53624985  0.87377856     0.01800
H1288       H  0.44119326  0.55710080  0.87299980     0.09400
H1289       H  0.39881154  0.53336658  0.87371251     0.08500
N1290       N  0.47578913  0.50936952  0.87181727    -0.35300
N1291       N  0.47552031  0.49436736  0.87113912    -0.27500
C1292       C  0.48985972  0.48912289  0.87041702    -0.02800
C1293       C  0.49964067  0.50140612  0.87070502     0.05900
C1294       C  0.49032717  0.51406513  0.87161772     0.03900
H1295       H  0.49294788  0.47723613  0.86991156     0.09100
H1296       H  0.49386404  0.52581791  0.87209138     0.07900
N1297       N  0.06581404  0.62118507  0.90410738    -0.26500
N1298       N  0.05848826  0.62079655  0.89101837    -0.34400
C1299       C  0.06859756  0.62167314  0.87959996     0.01800
C1300       C  0.08301346  0.62275406  0.88578388     0.07900
C1301       C  0.08079748  0.62238166  0.90137155    -0.05200
H1302       H  0.06564448  0.62179239  0.86766759     0.08500
H1303       H  0.08939374  0.62334204  0.91008790     0.09700
Cu1304     Cu  0.03503611  0.62017321  0.88936319     0.44200
Cu1305     Cu  0.05489507  0.62075494  0.92498990     0.42000
Cu1306     Cu  0.01365287  0.62163731  0.92481142     0.43900
N1307       N  0.01155222  0.62091166  0.89049589    -0.33900
N1308       N  0.00373355  0.62156754  0.90332290    -0.28100
C1309       C  0.98883875  0.62221296  0.89998401    -0.04200
C1310       C  0.98722185  0.62194692  0.88432174     0.08000
C1311       C  0.00186598  0.62112535  0.87869458     0.01800
H1312       H  0.97984330  0.62282371  0.90834063     0.09400
H1313       H  0.00525734  0.62092976  0.86687424     0.08500
N1314       N  0.02668762  0.62108849  0.94456257    -0.35300
N1315       N  0.04169479  0.62067911  0.94451581    -0.27500
C1316       C  0.04673009  0.62044131  0.95893529    -0.02800
C1317       C  0.03433281  0.62070488  0.96859774     0.05900
C1318       C  0.02179327  0.62112477  0.95907370     0.03900
H1319       H  0.05857886  0.62032988  0.96214826     0.09100
H1320       H  0.00998587  0.62143315  0.96244711     0.07900
N1321       N  0.06400270  0.36317186  0.90328018    -0.26500
N1322       N  0.05616788  0.36264235  0.89047588    -0.34400
C1323       C  0.06585440  0.36262065  0.87865673     0.01800
C1324       C  0.08052522  0.36322905  0.88423731     0.07900
C1325       C  0.07891937  0.36349888  0.89990775    -0.05200
H1326       H  0.06245002  0.36257360  0.86684571     0.08500
H1327       H  0.08790599  0.36445923  0.90821902     0.09700
Cu1328     Cu  0.03265968  0.36320072  0.88941395     0.44200
Cu1329     Cu  0.05394691  0.36471607  0.92468234     0.42000
Cu1330     Cu  0.01263244  0.36726243  0.92485007     0.43900
N1331       N  0.00920757  0.36442889  0.89099593    -0.33900
N1332       N  0.00177321  0.36573484  0.90397883    -0.28100
C1333       C  0.98675376  0.36574109  0.90113146    -0.04200
C1334       C  0.98463990  0.36442121  0.88556901     0.08000
C1335       C  0.99915995  0.36369942  0.87954724     0.01800
H1336       H  0.97804133  0.36640507  0.90977750     0.09400
H1337       H  0.00221435  0.36266204  0.86767953     0.08500
N1338       N  0.02595144  0.36828754  0.94428177    -0.35300
N1339       N  0.04093599  0.36732005  0.94432617    -0.27500
C1340       C  0.04587316  0.36813408  0.95879393    -0.02800
C1341       C  0.03339148  0.36965603  0.96831491     0.05900
C1342       C  0.02098453  0.36970369  0.95866764     0.03900
H1343       H  0.05767476  0.36759401  0.96213302     0.09100
H1344       H  0.00915292  0.37039357  0.96189825     0.07900
N1345       N  0.93570721  0.02689047  0.37974562    -0.26500
N1346       N  0.92266885  0.01949759  0.38029785    -0.34400
C1347       C  0.91124737  0.02956770  0.38131438     0.01800
C1348       C  0.91732929  0.04404182  0.38140054     0.07900
C1349       C  0.93290045  0.04192118  0.38040167    -0.05200
H1350       H  0.89934124  0.02658325  0.38148822     0.08500
H1351       H  0.94152230  0.05064254  0.37991036     0.09700
Cu1352     Cu  0.92071142  0.99611902  0.37883875     0.44200
Cu1353     Cu  0.95653107  0.01603163  0.37731065     0.42000
Cu1354     Cu  0.95522810  0.97470790  0.37444690     0.43900
N1355       N  0.92129718  0.97269409  0.37695538    -0.33900
N1356       N  0.93398584  0.96482942  0.37539156    -0.28100
C1357       C  0.93058285  0.94999682  0.37426339    -0.04200
C1358       C  0.91497933  0.94846190  0.37513262     0.08000
C1359       C  0.90945500  0.96308315  0.37684549     0.01800
H1360       H  0.93885024  0.94101162  0.37282689     0.09400
H1361       H  0.89768726  0.96651049  0.37769221     0.08500
N1362       N  0.97499723  0.98728230  0.37355888    -0.35300
N1363       N  0.97551524  0.00226698  0.37452917    -0.27500
C1364       C  0.99007475  0.00674794  0.37364218    -0.02800
C1365       C  0.99910782  0.99397314  0.37208940     0.05900
C1366       C  0.98918067  0.98183804  0.37206864     0.03900
H1367       H  0.99383121  0.01842295  0.37431396     0.09100
H1368       H  0.99204308  0.96992406  0.37108459     0.07900
N1369       N  0.93211976  0.02830995  0.62542057    -0.26500
N1370       N  0.91926452  0.02075076  0.62385960    -0.34400
C1371       C  0.90766878  0.03066772  0.62343688     0.01800
C1372       C  0.91345410  0.04520540  0.62487609     0.07900
C1373       C  0.92902499  0.04328294  0.62606111    -0.05200
H1374       H  0.89584447  0.02749809  0.62251798     0.08500
H1375       H  0.93742611  0.05206675  0.62776764     0.09700
Cu1376     Cu  0.91784039  0.99726322  0.62353797     0.44200
Cu1377     Cu  0.95306635  0.01764097  0.62736427     0.42000
Cu1378     Cu  0.95263245  0.97608086  0.62794494     0.43900
N1379       N  0.91870018  0.97377869  0.62485474    -0.33900
N1380       N  0.93139322  0.96595383  0.62663342    -0.28100
C1381       C  0.92799588  0.95106930  0.62748774    -0.04200
C1382       C  0.91241398  0.94948932  0.62614012     0.08000
C1383       C  0.90690821  0.96411706  0.62449207     0.01800
H1384       H  0.93624521  0.94207763  0.62897558     0.09400
H1385       H  0.89515588  0.96750858  0.62334618     0.08500
N1386       N  0.97224213  0.98912443  0.62895561    -0.35300
N1387       N  0.97236722  0.00415086  0.62886113    -0.27500
C1388       C  0.98682019  0.00898434  0.62959542    -0.02800
C1389       C  0.99627952  0.99642404  0.63011308     0.05900
C1390       C  0.98662791  0.98402537  0.62969409     0.03900
H1391       H  0.99019028  0.02079479  0.62972858     0.09100
H1392       H  0.98982909  0.97215782  0.62972763     0.07900
N1393       N  0.42200007  0.89976242  0.03031629    -0.26500
N1394       N  0.42268833  0.88696711  0.02247504    -0.34400
C1395       C  0.42173253  0.87516646  0.03217457     0.01800
C1396       C  0.42031937  0.88083854  0.04679350     0.07900
C1397       C  0.42051871  0.89646264  0.04517599    -0.05200
H1398       H  0.42195661  0.86334138  0.02883916     0.08500
H1399       H  0.41972902  0.90482095  0.05415166     0.09700
Cu1400     Cu  0.42479225  0.88632119  0.99891696     0.44200
Cu1401     Cu  0.42301120  0.92116954  0.02049207     0.42000
Cu1402     Cu  0.42676973  0.92291307  0.97953344     0.43900
N1403       N  0.42665988  0.88877886  0.97545975    -0.33900
N1404       N  0.42734860  0.90202183  0.96836851    -0.28100
C1405       C  0.42765538  0.89955062  0.95325421    -0.04200
C1406       C  0.42718425  0.88401944  0.95073140     0.08000
C1407       C  0.42658061  0.87757493  0.96506377     0.01800
H1408       H  0.42783456  0.90840568  0.94472822     0.09400
H1409       H  0.42559729  0.86561671  0.96772087     0.08500
N1410       N  0.42449637  0.94204698  0.99333207    -0.35300
N1411       N  0.42313375  0.94134868  0.00828462    -0.27500
C1412       C  0.42132650  0.95548818  0.01381306    -0.02800
C1413       C  0.42151611  0.96563753  0.00177976     0.05900
C1414       C  0.42357365  0.95668542  0.98896712     0.03900
H1415       H  0.41986886  0.95816971  0.02572424     0.09100
H1416       H  0.42404236  0.96051283  0.97729075     0.07900
N1417       N  0.66883055  0.89838609  0.03165860    -0.26500
N1418       N  0.66998846  0.88549289  0.02405836    -0.34400
C1419       C  0.66996889  0.87386262  0.03394422     0.01800
C1420       C  0.66861563  0.87968197  0.04849526     0.07900
C1421       C  0.66793268  0.89528935  0.04660054    -0.05200
H1422       H  0.67076512  0.86202440  0.03074395     0.08500
H1423       H  0.66663846  0.90376843  0.05540583     0.09700
Cu1424     Cu  0.67045879  0.88410442  0.00059450     0.44200
Cu1425     Cu  0.66825029  0.91951513  0.02130866     0.42000
Cu1426     Cu  0.66674057  0.91944292  0.98008397     0.43900
N1427       N  0.66835900  0.88539226  0.97721127    -0.33900
N1428       N  0.66682793  0.89830831  0.96970147    -0.28100
C1429       C  0.66544842  0.89526775  0.95479062    -0.04200
C1430       C  0.66615853  0.87968034  0.95283253     0.08000
C1431       C  0.66800127  0.87378552  0.96729548     0.01800
H1432       H  0.66401251  0.90377452  0.94603206     0.09400
H1433       H  0.66911362  0.86193846  0.97037824     0.08500
N1434       N  0.66694419  0.93903235  0.99315766    -0.35300
N1435       N  0.66753555  0.93903615  0.00817355    -0.27500
C1436       C  0.66740083  0.95346675  0.01315681    -0.02800
C1437       C  0.66667837  0.96301750  0.00068557     0.05900
C1438       C  0.66641142  0.95347391  0.98818978     0.03900
H1439       H  0.66763638  0.95675822  0.02500003     0.09100
H1440       H  0.66589916  0.95677755  0.97635638     0.07900
N1441       N  0.05821932  0.36404187  0.09981378    -0.26500
N1442       N  0.05038553  0.36159393  0.11237978    -0.34400
C1443       C  0.05990916  0.36136321  0.12430223     0.01800
C1444       C  0.07447666  0.36370005  0.11895018     0.07900
C1445       C  0.07301303  0.36531685  0.10336799    -0.05200
H1446       H  0.05649545  0.35955464  0.13597851     0.08500
H1447       H  0.08200524  0.36740093  0.09525253     0.09700
Cu1448     Cu  0.02711914  0.35902469  0.11251642     0.44200
Cu1449     Cu  0.04800483  0.36597208  0.07867612     0.42000
Cu1450     Cu  0.00652335  0.36500407  0.07698465     0.43900
N1451       N  0.00377249  0.35912816  0.11078322    -0.33900
N1452       N  0.99610591  0.36165040  0.09810843    -0.28100
C1453       C  0.98119113  0.36227363  0.10151076    -0.04200
C1454       C  0.97947905  0.36008297  0.11704910     0.08000
C1455       C  0.99404273  0.35801059  0.12247736     0.01800
H1456       H  0.97230160  0.36468791  0.09338540     0.09400
H1457       H  0.99739894  0.35628269  0.13417617     0.08500
N1458       N  0.02055367  0.36781615  0.05797939    -0.35300
N1459       N  0.03555350  0.36806794  0.05878363    -0.27500
C1460       C  0.04132545  0.36938300  0.04470203    -0.02800
C1461       C  0.02946285  0.36996666  0.03444344     0.05900
C1462       C  0.01642841  0.36900242  0.04326012     0.03900
H1463       H  0.05332578  0.36957718  0.04209120     0.09100
H1464       H  0.00483860  0.36867167  0.03922489     0.07900
N1465       N  0.06422031  0.62775037  0.10037360    -0.26500
N1466       N  0.05619638  0.62846015  0.11306371    -0.34400
C1467       C  0.06573146  0.63027653  0.12487637     0.01800
C1468       C  0.08050556  0.63082675  0.11941135     0.07900
C1469       C  0.07905567  0.62917895  0.10379357    -0.05200
H1470       H  0.06215939  0.63117393  0.13660938     0.08500
H1471       H  0.08810893  0.62925178  0.09548065     0.09700
Cu1472     Cu  0.03253987  0.62760019  0.11368802     0.44200
Cu1473     Cu  0.05451472  0.62514456  0.07893594     0.42000
Cu1474     Cu  0.01301099  0.62450785  0.07778720     0.43900
N1475       N  0.00895768  0.62779417  0.11160309    -0.33900
N1476       N  0.00173567  0.62668679  0.09848256    -0.28100
C1477       C  0.98665578  0.62747524  0.10103775    -0.04200
C1478       C  0.98426925  0.62921108  0.11653126     0.08000
C1479       C  0.99868572  0.62933157  0.12282499     0.01800
H1480       H  0.97808144  0.62702082  0.09225676     0.09400
H1481       H  0.00150077  0.63046168  0.13473626     0.08500
N1482       N  0.02686980  0.62299125  0.05866693    -0.35300
N1483       N  0.04188764  0.62315668  0.05900856    -0.27500
C1484       C  0.04719042  0.62242161  0.04465181    -0.02800
C1485       C  0.03492689  0.62182722  0.03481259     0.05900
C1486       C  0.02225446  0.62217910  0.04412265     0.03900
H1487       H  0.05907976  0.62270901  0.04158147     0.09100
H1488       H  0.01050564  0.62205352  0.04056269     0.07900
N1489       N  0.13067982  0.96788633  0.37068746    -0.26500
N1490       N  0.14321448  0.97602513  0.36960590    -0.34400
C1491       C  0.15524279  0.96663046  0.36921770     0.01800
C1492       C  0.14993954  0.95188341  0.37006476     0.07900
C1493       C  0.13433159  0.95308315  0.37099998    -0.05200
H1494       H  0.16692433  0.97025064  0.36815230     0.08500
H1495       H  0.12622923  0.94389028  0.37173798     0.09700
Cu1496     Cu  0.14314485  0.99942766  0.36844638     0.44200
Cu1497     Cu  0.10929334  0.97731813  0.37123861     0.42000
Cu1498     Cu  0.10691061  0.01877133  0.37017055     0.43900
N1499       N  0.14073192  0.02273316  0.36787915    -0.33900
N1500       N  0.12761238  0.03000371  0.36863590    -0.28100
C1501       C  0.13025682  0.04506739  0.36795016    -0.04200
C1502       C  0.14578173  0.04725999  0.36663402     0.08000
C1503       C  0.15201838  0.03286839  0.36667153     0.01800
H1504       H  0.12154474  0.05373660  0.36817939     0.09400
H1505       H  0.16393041  0.02996157  0.36588135     0.08500
N1506       N  0.08825852  0.00431820  0.37078257    -0.35300
N1507       N  0.08921914  0.98932733  0.37106972    -0.27500
C1508       C  0.07518591  0.98338781  0.37105333    -0.02800
C1509       C  0.06485017  0.99519245  0.37078634     0.05900
C1510       C  0.07352253  0.00830156  0.37062285     0.03900
H1511       H  0.07271862  0.97135304  0.37105654     0.09100
H1512       H  0.06941972  0.01988761  0.37039337     0.07900
N1513       N  0.12636508  0.96467810  0.63533844    -0.26500
N1514       N  0.13914627  0.97222994  0.63742662    -0.34400
C1515       C  0.15067779  0.96232787  0.63858516     0.01800
C1516       C  0.14487600  0.94784464  0.63713977     0.07900
C1517       C  0.12942673  0.94970650  0.63505674    -0.05200
H1518       H  0.16242548  0.96544645  0.64031063     0.08500
H1519       H  0.12103502  0.94086325  0.63362977     0.09700
Cu1520     Cu  0.14050226  0.99557994  0.63855794     0.44200
Cu1521     Cu  0.10548029  0.97524965  0.63345136     0.42000
Cu1522     Cu  0.10576365  0.01679140  0.63502660     0.43900
N1523       N  0.13963207  0.01898679  0.63872959    -0.33900
N1524       N  0.12696144  0.02690063  0.63724464    -0.28100
C1525       C  0.13036563  0.04180175  0.63755775    -0.04200
C1526       C  0.14591520  0.04325080  0.63939443     0.08000
C1527       C  0.15140556  0.02856295  0.64007941     0.01800
H1528       H  0.12214693  0.05089167  0.63659562     0.09400
H1529       H  0.16312453  0.02508147  0.64130196     0.08500
N1530       N  0.08621695  0.00365398  0.63354622    -0.35300
N1531       N  0.08617471  0.98863758  0.63296158    -0.27500
C1532       C  0.07175729  0.98371239  0.63227895    -0.02800
C1533       C  0.06224042  0.99620783  0.63244674     0.05900
C1534       C  0.07178804  0.00866286  0.63324261     0.03900
H1535       H  0.06845660  0.97189683  0.63166911     0.09100
H1536       H  0.06848456  0.02049316  0.63371160     0.07900
N1537       N  0.40384558  0.09560566  0.97215680    -0.26500
N1538       N  0.40034276  0.10807114  0.97976790    -0.34400
C1539       C  0.39842073  0.11958563  0.96993351     0.01800
C1540       C  0.40076096  0.11415559  0.95537354     0.07900
C1541       C  0.40422105  0.09889192  0.95720415    -0.05200
H1542       H  0.39554985  0.13109489  0.97316042     0.08500
H1543       H  0.40665905  0.09074846  0.94832443     0.09700
Cu1544     Cu  0.39803416  0.10900350  0.00313277     0.44200
Cu1545     Cu  0.40761932  0.07474843  0.98268065     0.42000
Cu1546     Cu  0.40282481  0.07403918  0.02398600     0.43900
N1547       N  0.39623630  0.10759308  0.02651987    -0.33900
N1548       N  0.39793557  0.09484551  0.03428183    -0.28100
C1549       C  0.39675304  0.09799178  0.04922307    -0.04200
C1550       C  0.39422233  0.11346925  0.05090240     0.08000
C1551       C  0.39395294  0.11914327  0.03624479     0.01800
H1552       H  0.39800957  0.08969711  0.05821088     0.09400
H1553       H  0.39274632  0.13091264  0.03290559     0.08500
N1554       N  0.40823150  0.05499981  0.01088879    -0.35300
N1555       N  0.41004633  0.05529937  0.99595778    -0.27500
C1556       C  0.41316647  0.04115211  0.99103684    -0.02800
C1557       C  0.41331689  0.03142429  0.00342196     0.05900
C1558       C  0.41016031  0.04063727  0.01581819     0.03900
H1559       H  0.41484741  0.03810237  0.97924468     0.09100
H1560       H  0.40921918  0.03713087  0.02756632     0.07900
N1561       N  0.66141309  0.09469963  0.97254603    -0.26500
N1562       N  0.66027377  0.10713128  0.98088853    -0.34400
C1563       C  0.65984495  0.11932578  0.97171659     0.01800
C1564       C  0.66074381  0.11440346  0.95682692     0.07900
C1565       C  0.66169479  0.09869714  0.95775161    -0.05200
H1566       H  0.65905206  0.13095405  0.97561445     0.08500
H1567       H  0.66278341  0.09080600  0.94839074     0.09700
Cu1568     Cu  0.65972992  0.10715735  0.00438421     0.44200
Cu1569     Cu  0.66277510  0.07309271  0.98215064     0.42000
Cu1570     Cu  0.66284808  0.07168370  0.02412398     0.43900
N1571       N  0.66017920  0.10544560  0.02781945    -0.33900
N1572       N  0.66147383  0.09246308  0.03524623    -0.28100
C1573       C  0.66206891  0.09537832  0.05027259    -0.04200
C1574       C  0.66113594  0.11097090  0.05232930     0.08000
C1575       C  0.65989290  0.11693986  0.03783788     0.01800
H1576       H  0.66348985  0.08683916  0.05900287     0.09400
H1577       H  0.65912414  0.12881936  0.03477364     0.08500
N1578       N  0.66351135  0.05273890  0.01003819    -0.35300
N1579       N  0.66342768  0.05319714  0.99499257    -0.27500
C1580       C  0.66377573  0.03888674  0.98961238    -0.02800
C1581       C  0.66412829  0.02897549  0.00182348     0.05900
C1582       C  0.66394909  0.03815374  0.01457658     0.03900
H1583       H  0.66389450  0.03591653  0.97768275     0.09100
H1584       H  0.66405973  0.03449427  0.02631666     0.07900
N1585       N  0.49868148  0.85156168  0.59580057    -0.26500
N1586       N  0.50626701  0.85307055  0.60865885    -0.34400
C1587       C  0.49637904  0.85429469  0.62021222     0.01800
C1588       C  0.48188355  0.85345750  0.61432106     0.07900
C1589       C  0.48371381  0.85168489  0.59882170    -0.05200
H1590       H  0.49950171  0.85604826  0.63196981     0.08500
H1591       H  0.47485580  0.85113242  0.59033551     0.09700
Cu1592     Cu  0.52960580  0.85445278  0.60985113     0.44200
Cu1593     Cu  0.50915086  0.85096103  0.57478958     0.42000
Cu1594     Cu  0.55044546  0.85450471  0.57457651     0.43900
N1595       N  0.55287015  0.85669614  0.60852052    -0.33900
N1596       N  0.56057563  0.85677734  0.59563120    -0.28100
C1597       C  0.57540601  0.85858341  0.59872491    -0.04200
C1598       C  0.57706045  0.85965672  0.61433132     0.08000
C1599       C  0.56254866  0.85840175  0.62016213     0.01800
H1600       H  0.58429753  0.85909042  0.59025034     0.09400
H1601       H  0.55926849  0.85855791  0.63201537     0.08500
N1602       N  0.53718535  0.85348632  0.55523739    -0.35300
N1603       N  0.52221906  0.85237595  0.55532986    -0.27500
C1604       C  0.51711229  0.85287830  0.54096088    -0.02800
C1605       C  0.52946235  0.85431490  0.53136881     0.05900
C1606       C  0.54200643  0.85462992  0.54079695     0.03900
H1607       H  0.50526128  0.85255531  0.53777262     0.09100
H1608       H  0.55376172  0.85580374  0.53743407     0.07900
N1609       N  0.56262727  0.12214093  0.60165370    -0.26500
N1610       N  0.55566390  0.12476233  0.61470955    -0.34400
C1611       C  0.56597789  0.12466769  0.62595264     0.01800
C1612       C  0.58013928  0.12180938  0.61972531     0.07900
C1613       C  0.57758210  0.12029919  0.60426205    -0.05200
H1614       H  0.56335535  0.12650564  0.63782747     0.08500
H1615       H  0.58592860  0.11786204  0.59556924     0.09700
Cu1616     Cu  0.53238621  0.12787262  0.61679306     0.44200
Cu1617     Cu  0.55133745  0.12131314  0.58096035     0.42000
Cu1618     Cu  0.51059654  0.12711472  0.58182143     0.43900
N1619       N  0.50886714  0.12920695  0.61597750    -0.33900
N1620       N  0.50094617  0.12876378  0.60322465    -0.28100
C1621       C  0.48606018  0.12911446  0.60659550    -0.04200
C1622       C  0.48453828  0.12982659  0.62221898     0.08000
C1623       C  0.49921391  0.12990034  0.62781153     0.01800
H1624       H  0.47701958  0.12871328  0.59829444     0.09400
H1625       H  0.50261321  0.13005434  0.63962313     0.08500
N1626       N  0.52303411  0.12506915  0.56193840    -0.35300
N1627       N  0.53785930  0.12273468  0.56165417    -0.27500
C1628       C  0.54257537  0.12253042  0.54712209    -0.02800
C1629       C  0.53014901  0.12494180  0.53779200     0.05900
C1630       C  0.51793486  0.12646046  0.54759130     0.03900
H1631       H  0.55426777  0.12113402  0.54361928     0.09100
H1632       H  0.50629196  0.12891742  0.54455045     0.07900
N1633       N  0.62991670  0.53092158  0.87560439    -0.26500
N1634       N  0.64280908  0.52348192  0.87754872    -0.34400
C1635       C  0.65437432  0.53342012  0.87734553     0.01800
C1636       C  0.64846142  0.54781756  0.87522828     0.07900
C1637       C  0.63291890  0.54584518  0.87420069    -0.05200
H1638       H  0.66622760  0.53036919  0.87839773     0.08500
H1639       H  0.62447579  0.55454412  0.87216931     0.09700
Cu1640     Cu  0.64410725  0.50008703  0.87933186     0.44200
Cu1641     Cu  0.60907608  0.52011334  0.87401524     0.42000
Cu1642     Cu  0.60912347  0.47869169  0.87426433     0.43900
N1643       N  0.64315033  0.47662631  0.87841614    -0.33900
N1644       N  0.63053143  0.46871402  0.87653929    -0.28100
C1645       C  0.63413664  0.45384897  0.87573672    -0.04200
C1646       C  0.64975029  0.45242800  0.87707485     0.08000
C1647       C  0.65506162  0.46708308  0.87877716     0.01800
H1648       H  0.62605911  0.44479287  0.87389929     0.09400
H1649       H  0.66677168  0.47058557  0.87992082     0.08500
N1650       N  0.58953701  0.49192415  0.87209786    -0.35300
N1651       N  0.58964543  0.50695675  0.87217670    -0.27500
C1652       C  0.57529884  0.51210043  0.87124487    -0.02800
C1653       C  0.56564715  0.49975880  0.87048938     0.05900
C1654       C  0.57504675  0.48713280  0.87102078     0.03900
H1655       H  0.57210298  0.52396953  0.87137410     0.09100
H1656       H  0.57157101  0.47535266  0.87109236     0.07900
N1657       N  0.62407761  0.53079849  0.14386694    -0.26500
N1658       N  0.63655508  0.52283167  0.14142468    -0.34400
C1659       C  0.64808930  0.53231296  0.13846657     0.01800
C1660       C  0.64269592  0.54705387  0.13898027     0.07900
C1661       C  0.62736913  0.54567324  0.14243262    -0.05200
H1662       H  0.65968245  0.52872870  0.13653361     0.08500
H1663       H  0.61926326  0.55478462  0.14397477     0.09700
Cu1664     Cu  0.63773643  0.49950722  0.14280282     0.44200
Cu1665     Cu  0.60352760  0.52060747  0.14947643     0.42000
Cu1666     Cu  0.60436608  0.47895990  0.15358635     0.43900
N1667       N  0.63718316  0.47622286  0.14500855    -0.33900
N1668       N  0.62495324  0.46853107  0.14902506    -0.28100
C1669       C  0.62832944  0.45362080  0.14924232    -0.04200
C1670       C  0.64343330  0.45196390  0.14522975     0.08000
C1671       C  0.64868847  0.46649977  0.14263309     0.01800
H1672       H  0.62043124  0.44468684  0.15217312     0.09400
H1673       H  0.66002593  0.46977114  0.13922586     0.08500
N1674       N  0.58491558  0.49213298  0.15495160    -0.35300
N1675       N  0.58457214  0.50708990  0.15343413    -0.27500
C1676       C  0.57002445  0.51173758  0.15350112    -0.02800
C1677       C  0.56079283  0.49912672  0.15504462     0.05900
C1678       C  0.57062062  0.48690798  0.15600256     0.03900
H1679       H  0.56640463  0.52335986  0.15178664     0.09100
H1680       H  0.56759918  0.47502738  0.15680828     0.07900
N1681       N  0.89211505  0.59513531  0.53476109    -0.26500
N1682       N  0.89305632  0.60779655  0.52671781    -0.34400
C1683       C  0.89381054  0.61971430  0.53623322     0.01800
C1684       C  0.89339357  0.61434961  0.55099927     0.07900
C1685       C  0.89233796  0.59869899  0.54966111    -0.05200
H1686       H  0.89481179  0.63143290  0.53266461     0.08500
H1687       H  0.89178057  0.59052546  0.55882897     0.09700
Cu1688     Cu  0.89391631  0.60847565  0.50315597     0.44200
Cu1689     Cu  0.89097344  0.57366163  0.52484980     0.42000
Cu1690     Cu  0.89412200  0.57287299  0.48328131     0.43900
N1691       N  0.89541206  0.60678391  0.47967552    -0.33900
N1692       N  0.89558860  0.59370992  0.47230265    -0.28100
C1693       C  0.89648495  0.59647633  0.45726898    -0.04200
C1694       C  0.89684666  0.61206432  0.45509126     0.08000
C1695       C  0.89617119  0.61821145  0.46956290     0.01800
H1696       H  0.89654508  0.58780283  0.44856342     0.09400
H1697       H  0.89613673  0.63013795  0.47252184     0.08500
N1698       N  0.89253961  0.55363678  0.49687140    -0.35300
N1699       N  0.89139626  0.55385019  0.51187256    -0.27500
C1700       C  0.89149377  0.53944784  0.51704165    -0.02800
C1701       C  0.89274484  0.52973429  0.50471422     0.05900
C1702       C  0.89334452  0.53913319  0.49213494     0.03900
H1703       H  0.89113501  0.53629220  0.52892144     0.09100
H1704       H  0.89487795  0.53569564  0.48042943     0.07900
N1705       N  0.15235215  0.59496410  0.47388263    -0.26500
N1706       N  0.15150987  0.60739068  0.48226268    -0.34400
C1707       C  0.15019784  0.61953969  0.47309482     0.01800
C1708       C  0.15026927  0.61459832  0.45815225     0.07900
C1709       C  0.15161607  0.59891593  0.45909676    -0.05200
H1710       H  0.14943633  0.63115900  0.47702632     0.08500
H1711       H  0.15238911  0.59100460  0.44972262     0.09700
Cu1712     Cu  0.15264408  0.60734804  0.50578506     0.44200
Cu1713     Cu  0.15483728  0.57337581  0.48333198     0.42000
Cu1714     Cu  0.15472351  0.57139036  0.52517146     0.43900
N1715       N  0.15366719  0.60523102  0.52921275    -0.33900
N1716       N  0.15427045  0.59210487  0.53648647    -0.28100
C1717       C  0.15504100  0.59479641  0.55155011    -0.04200
C1718       C  0.15497788  0.61038402  0.55378844     0.08000
C1719       C  0.15406190  0.61659203  0.53937709     0.01800
H1720       H  0.15594630  0.58608819  0.56018238     0.09400
H1721       H  0.15382863  0.62853423  0.53647625     0.08500
N1722       N  0.15632157  0.55265454  0.51087891    -0.35300
N1723       N  0.15665042  0.55332706  0.49585235    -0.27500
C1724       C  0.15804440  0.53913611  0.49030750    -0.02800
C1725       C  0.15855422  0.52903446  0.50239562     0.05900
C1726       C  0.15740250  0.53805143  0.51523638     0.03900
H1727       H  0.15865750  0.53638608  0.47834024    -0.05300
H1728       H  0.15722515  0.53426165  0.52693399     0.07900
C1729       C  0.66612151  0.97990296  0.00077429    -0.04500
C1730       C  0.65442303  0.98770100  0.99300787    -0.01700
C1731       C  0.65377686  0.00372245  0.99332326     0.03300
C1732       C  0.66483282  0.01209444  0.00138371    -0.04500
C1733       C  0.67656169  0.00429162  0.00908918    -0.01700
C1734       C  0.67720573  0.98828203  0.00878520     0.03300
C1735       C  0.64267088  0.97924790  0.98515549     0.38000
C1736       C  0.68832430  0.01273544  0.01692874     0.38000
C1737       C  0.68962924  0.98047902  0.01630957     0.36400
C1738       C  0.64134944  0.01153700  0.98582985     0.36400
N1739       N  0.69954572  0.97426952  0.02230463    -0.38400
N1740       N  0.63140301  0.01772971  0.97986818    -0.38400
N1741       N  0.69772321  0.01945241  0.02317161    -0.37900
N1742       N  0.63329920  0.97250384  0.97889796    -0.37900
C1743       C  0.41952726  0.98248477  0.00241921    -0.04500
C1744       C  0.43011030  0.99217033  0.99520177    -0.01700
C1745       C  0.42822337  0.00811249  0.99573542     0.03300
C1746       C  0.41557540  0.01458761  0.00326459    -0.04500
C1747       C  0.40495991  0.00489103  0.01044096    -0.01700
C1748       C  0.40700849  0.98896224  0.01016589     0.03300
C1749       C  0.44327406  0.98577207  0.98760407     0.38000
C1750       C  0.39148380  0.01121781  0.01753298     0.38000
C1751       C  0.39584794  0.97925233  0.01742707     0.36400
C1752       C  0.43966353  0.01784279  0.98896720     0.36400
N1753       N  0.38693800  0.97156217  0.02327621    -0.38400
N1754       N  0.44885202  0.02555004  0.98359548    -0.38400
N1755       N  0.38070185  0.01624718  0.02313763    -0.37900
N1756       N  0.45375283  0.98065252  0.98152498    -0.37900
C1757       C  0.01318148  0.99630454  0.63069156    -0.04500
C1758       C  0.02087406  0.98750245  0.64172874    -0.01700
C1759       C  0.03688585  0.98750147  0.64233284     0.03300
C1760       C  0.04537413  0.99622379  0.63185474    -0.04500
C1761       C  0.03771004  0.00493554  0.62076550    -0.01700
C1762       C  0.02170568  0.00503743  0.62022407     0.03300
C1763       C  0.01235377  0.97887491  0.65290239     0.38000
C1764       C  0.04629110  0.01336889  0.60948431     0.38000
C1765       C  0.01408293  0.01379498  0.60851537     0.36400
C1766       C  0.04458391  0.97894883  0.65415167     0.36400
N1767       N  0.00805784  0.02083485  0.59918321    -0.38400
N1768       N  0.05070822  0.97214566  0.66359512    -0.38400
N1769       N  0.05313732  0.02006141  0.60047030    -0.37900
N1770       N  0.00560715  0.97197736  0.66183710    -0.37900
C1771       C  0.01591809  0.99346516  0.37118782    -0.04500
C1772       C  0.02434135  0.98480251  0.38176593    -0.01700
C1773       C  0.04034307  0.98516898  0.38151943     0.03300
C1774       C  0.04803550  0.99408337  0.37058369    -0.04500
C1775       C  0.03959730  0.00210017  0.35952502    -0.01700
C1776       C  0.02360658  0.00188759  0.35990080     0.03300
C1777       C  0.01658826  0.97590143  0.39328347     0.38000
C1778       C  0.04735133  0.01007776  0.34734865     0.38000
C1779       C  0.01507013  0.00995084  0.34832594     0.36400
C1780       C  0.04881859  0.97677210  0.39290773     0.36400
N1781       N  0.00828413  0.01635221  0.33905906    -0.38400
N1782       N  0.05553658  0.97002826  0.40198237    -0.38400
N1783       N  0.05354918  0.01635473  0.33759447    -0.37900
N1784       N  0.01044268  0.96874446  0.40244577    -0.37900
C1785       C  0.03305660  0.37022616  0.98528466    -0.04500
C1786       C  0.02442941  0.38149924  0.99287336    -0.01700
C1787       C  0.02333382  0.38150135  0.00890858     0.03300
C1788       C  0.03066849  0.37012115  0.01753278    -0.04500
C1789       C  0.03940865  0.35894866  0.00997185    -0.01700
C1790       C  0.04079967  0.35913744  0.99397982     0.03300
C1791       C  0.01707970  0.39346818  0.98423070     0.38000
C1792       C  0.04643559  0.34676200  0.01858549     0.38000
C1793       C  0.04987145  0.34755550  0.98653124     0.36400
C1794       C  0.01507366  0.39355624  0.01654529     0.36400
N1795       N  0.05722487  0.33835047  0.98068139    -0.38400
N1796       N  0.00854375  0.40323695  0.02259984    -0.38400
N1797       N  0.05196811  0.33700653  0.02545526    -0.37900
N1798       N  0.01122270  0.40301647  0.97733701    -0.37900
C1799       C  0.03457348  0.62100871  0.98555336    -0.04500
C1800       C  0.04313950  0.61016239  0.99378415    -0.01700
C1801       C  0.04344186  0.61053564  0.00984456     0.03300
C1802       C  0.03515075  0.62172468  0.01785862    -0.04500
C1803       C  0.02684085  0.63274078  0.00961927    -0.01700
C1804       C  0.02651689  0.63236301  0.99357814     0.03300
C1805       C  0.05128478  0.59826015  0.98578033     0.38000
C1806       C  0.01912248  0.64492937  0.01761311     0.38000
C1807       C  0.01836755  0.64410398  0.98535191     0.36400
C1808       C  0.05194138  0.59907249  0.01810227     0.36400
N1809       N  0.01188019  0.65349798  0.97882269    -0.38400
N1810       N  0.05874993  0.58991896  0.02464610    -0.38400
N1811       N  0.01301615  0.65468362  0.02398216    -0.37900
N1812       N  0.05780319  0.58877217  0.97941400    -0.37900
C1813       C  0.51654093  0.50102020  0.87056996    -0.04500
C1814       C  0.52443950  0.49392017  0.85850295    -0.01700
C1815       C  0.54048102  0.49353392  0.85843323     0.03300
C1816       C  0.54875245  0.50009749  0.87050285    -0.04500
C1817       C  0.54084879  0.50712050  0.88260008    -0.01700
C1818       C  0.52483230  0.50762495  0.88260998     0.03300
C1819       C  0.51607640  0.48738658  0.84590712     0.38000
C1820       C  0.54918467  0.51336911  0.89536194     0.38000
C1821       C  0.51688702  0.51443863  0.89535635     0.36400
C1822       C  0.54847991  0.48686363  0.84564987     0.36400
N1823       N  0.51056222  0.51984570  0.90554526    -0.38400
N1824       N  0.55484645  0.48160706  0.83540776    -0.38400
N1825       N  0.55584717  0.51830668  0.90555274    -0.37900
N1826       N  0.50939297  0.48216975  0.83586958    -0.37900
C1827       C  0.52944643  0.85808701  0.48251520    -0.04500
C1828       C  0.53733644  0.86883538  0.49142138    -0.01700
C1829       C  0.53714936  0.86773279  0.50738943     0.03300
C1830       C  0.52927365  0.85572847  0.51457465    -0.04500
C1831       C  0.52124256  0.84507513  0.50566680    -0.01700
C1832       C  0.52130552  0.84626828  0.48969819     0.03300
C1833       C  0.54518193  0.88142249  0.48421587     0.38000
C1834       C  0.51320927  0.83260688  0.51286392     0.38000
C1835       C  0.51334379  0.83501053  0.48067863     0.36400
C1836       C  0.54444982  0.87943716  0.51640132     0.36400
N1837       N  0.50695793  0.82602684  0.47353234    -0.38400
N1838       N  0.55021251  0.88883490  0.52354623    -0.38400
N1839       N  0.50675293  0.82269049  0.51858719    -0.37900
N1840       N  0.55145045  0.89144990  0.47847675    -0.37900
C1841       C  0.90004192  0.48112843  0.50355089    -0.04500
C1842       C  0.88772137  0.48769181  0.49560314    -0.01700
C1843       C  0.88517137  0.50352472  0.49622227     0.03300
C1844       C  0.89485744  0.51295219  0.50485129    -0.04500
C1845       C  0.90694887  0.50635933  0.51309964    -0.01700
C1846       C  0.90951722  0.49053541  0.51247226     0.03300
C1847       C  0.87726948  0.47809847  0.48724749     0.38000
C1848       C  0.91719659  0.51591982  0.52174905     0.38000
C1849       C  0.92229138  0.48405645  0.52062588     0.36400
C1850       C  0.87226929  0.51005544  0.48831657     0.36400
N1851       N  0.93247319  0.47892763  0.52716911    -0.38400
N1852       N  0.86194610  0.51523382  0.48203982    -0.38400
N1853       N  0.92537357  0.52354891  0.52863526    -0.37900
N1854       N  0.86890625  0.47043262  0.48063164    -0.37900
C1855       C  0.16082846  0.47981384  0.50210999    -0.04500
C1856       C  0.17090793  0.48835365  0.51123015    -0.01700
C1857       C  0.17028378  0.50438669  0.51117175     0.03300
C1858       C  0.15967878  0.51211543  0.50187743    -0.04500
C1859       C  0.14984048  0.50357884  0.49248928    -0.01700
C1860       C  0.15026679  0.48754385  0.49276475     0.03300
C1861       C  0.18228031  0.48071195  0.52040451     0.38000
C1862       C  0.13882174  0.51120426  0.48288691     0.38000
C1863       C  0.13922558  0.47905093  0.48396934     0.36400
C1864       C  0.18096729  0.51290574  0.52036757     0.36400
N1865       N  0.13038131  0.47229746  0.47699309    -0.38400
N1866       N  0.18949297  0.51965393  0.52773429    -0.38400
N1867       N  0.13005657  0.51719748  0.47513339    -0.37900
N1868       N  0.19134858  0.47465537  0.52775032    -0.37900
C1869       C  0.51187404  0.49891481  0.15168445    -0.04500
C1870       C  0.51919996  0.50820853  0.16252743    -0.01700
C1871       C  0.53515441  0.50803051  0.16380435     0.03300
C1872       C  0.54395509  0.49876278  0.15409259    -0.04500
C1873       C  0.53664005  0.48955685  0.14315387    -0.01700
C1874       C  0.52067214  0.48967802  0.14192734     0.03300
C1875       C  0.51034121  0.51777671  0.17262823     0.38000
C1876       C  0.54551943  0.48033071  0.13275237     0.38000
C1877       C  0.51336673  0.48087767  0.13006404     0.36400
C1878       C  0.54247119  0.51697222  0.17554972     0.36400
N1879       N  0.50757501  0.47393174  0.12053242    -0.38400
N1880       N  0.54828728  0.52404404  0.18497149    -0.38400
N1881       N  0.55257514  0.47293836  0.12446756    -0.37900
N1882       N  0.50329873  0.52548711  0.18062762    -0.37900
C1883       C  0.53063544  0.13020767  0.48882767    -0.04500
C1884       C  0.52043714  0.11992433  0.49581503    -0.01700
C1885       C  0.52011060  0.11836081  0.51179446     0.03300
C1886       C  0.53018017  0.12682972  0.52096488    -0.04500
C1887       C  0.54035232  0.13712098  0.51401016    -0.01700
C1888       C  0.54061985  0.13876933  0.49805336     0.03300
C1889       C  0.51069302  0.11039638  0.48657025     0.38000
C1890       C  0.55009190  0.14661910  0.52330770     0.38000
C1891       C  0.55089739  0.14970962  0.49125715     0.36400
C1892       C  0.50961064  0.10772444  0.51874028     0.36400
N1893       N  0.55916869  0.15842023  0.48592602    -0.38400
N1894       N  0.50117163  0.09928727  0.52424725    -0.38400
N1895       N  0.55781352  0.15421797  0.53073439    -0.37900
N1896       N  0.50294634  0.10274245  0.47922709    -0.37900
C1897       C  0.16149120  0.35248642  0.41388824    -0.04500
C1898       C  0.17472625  0.35502782  0.42259491    -0.01700
C1899       C  0.17404816  0.36409177  0.43575851     0.03300
C1900       C  0.16024932  0.37098157  0.44009793    -0.04500
C1901       C  0.14714557  0.36892872  0.43113730    -0.01700
C1902       C  0.14769532  0.35949951  0.41818611     0.03300
C1903       C  0.18914566  0.34855041  0.41790309     0.38000
C1904       C  0.13296750  0.37607605  0.43555494     0.38000
C1905       C  0.13386372  0.35629116  0.40984934     0.36400
C1906       C  0.18760273  0.36641106  0.44483051     0.36400
N1907       N  0.12281815  0.35360821  0.40326962    -0.38400
N1908       N  0.19838112  0.36824794  0.45210749    -0.38400
N1909       N  0.12164874  0.38178610  0.43904280    -0.37900
N1910       N  0.20066566  0.34341747  0.41418399    -0.37900
C1911       C  0.11524088  0.36401116  0.14614163    -0.04500
C1912       C  0.11365186  0.35353366  0.13406672    -0.01700
C1913       C  0.10042264  0.35359624  0.12504395     0.03300
C1914       C  0.08865319  0.36408057  0.12804150    -0.04500
C1915       C  0.09032588  0.37471550  0.13993716    -0.01700
C1916       C  0.10359205  0.37473043  0.14890538     0.03300
C1917       C  0.12530828  0.34220961  0.13128312     0.38000
C1918       C  0.07855934  0.38593092  0.14272455     0.38000
C1919       C  0.10543080  0.38612265  0.16067943     0.36400
C1920       C  0.09865233  0.34239714  0.11307898     0.36400
N1921       N  0.10691016  0.39523558  0.17003797    -0.38400
N1922       N  0.09722298  0.33345311  0.10355269    -0.38400
N1923       N  0.06920199  0.39489872  0.14495844    -0.37900
N1924       N  0.13458584  0.33316373  0.12903284    -0.37900
C1925       C  0.16087969  0.33396968  0.29016739    -0.04500
C1926       C  0.16987437  0.34682944  0.28679920    -0.01700
C1927       C  0.17081989  0.35232763  0.27175635     0.03300
C1928       C  0.16310277  0.34480794  0.25985949    -0.04500
C1929       C  0.15385617  0.33212787  0.26329267    -0.01700
C1930       C  0.15273340  0.32677018  0.27836967     0.03300
C1931       C  0.17870752  0.35407657  0.29866602     0.38000
C1932       C  0.14575195  0.32425987  0.25130397     0.38000
C1933       C  0.14296788  0.31393329  0.28175142     0.36400
C1934       C  0.17937573  0.36605485  0.26862925     0.36400
N1935       N  0.13518181  0.30369802  0.28444028    -0.38400
N1936       N  0.18610325  0.37707045  0.26617398    -0.38400
N1937       N  0.13920009  0.31798867  0.24179806    -0.37900
N1938       N  0.18579622  0.35983789  0.30810884    -0.37900
C1939       C  0.17364731  0.08740976  0.36456092    -0.04500
C1940       C  0.16309359  0.08557782  0.37655307    -0.01700
C1941       C  0.15322909  0.07294072  0.37673673     0.03300
C1942       C  0.15432461  0.06173189  0.36529974    -0.04500
C1943       C  0.16450091  0.06385985  0.35305806    -0.01700
C1944       C  0.17386020  0.07680640  0.35252457     0.03300
C1945       C  0.16292206  0.09619171  0.38916407     0.38000
C1946       C  0.16527404  0.05278060  0.34086805     0.38000
C1947       C  0.18338947  0.07943462  0.33931818     0.36400
C1948       C  0.14241589  0.07117876  0.38905861     0.36400
N1949       N  0.19089219  0.08160876  0.32873602    -0.38400
N1950       N  0.13372159  0.06984645  0.39883788    -0.38400
N1951       N  0.16596641  0.04391480  0.33118305    -0.37900
N1952       N  0.16281190  0.10458244  0.39928790    -0.37900
C1953       C  0.19801515  0.20968917  0.36923436    -0.04500
C1954       C  0.20456528  0.21955966  0.35837794    -0.01700
C1955       C  0.19941047  0.23463998  0.35707956     0.03300
C1956       C  0.18744642  0.23991866  0.36638721    -0.04500
C1957       C  0.18082845  0.23006897  0.37719128    -0.01700
C1958       C  0.18610958  0.21500646  0.37863069     0.03300
C1959       C  0.21623150  0.21411342  0.34805875     0.38000
C1960       C  0.16827623  0.23526969  0.38654337     0.38000
C1961       C  0.17941349  0.20508426  0.38997400     0.36400
C1962       C  0.20673818  0.24482289  0.34636616     0.36400
N1963       N  0.17403286  0.19719060  0.39901223    -0.38400
N1964       N  0.21260320  0.25292451  0.33783038    -0.38400
N1965       N  0.15825919  0.23940227  0.39399886    -0.37900
N1966       N  0.22552359  0.20981096  0.33980213    -0.37900
C1967       C  0.44390565  0.13914458  0.36027187    -0.04500
C1968       C  0.44436113  0.14972578  0.37231854    -0.01700
C1969       C  0.45716757  0.15042083  0.38193652     0.03300
C1970       C  0.46982146  0.14090161  0.37921947    -0.04500
C1971       C  0.46927876  0.13023997  0.36721432    -0.01700
C1972       C  0.45635740  0.12932344  0.35783640     0.03300
C1973       C  0.43203518  0.16050090  0.37427209     0.38000
C1974       C  0.48182954  0.11982753  0.36475272     0.38000
C1975       C  0.45578335  0.11802688  0.34583317     0.36400
C1976       C  0.45746614  0.16126821  0.39433651     0.36400
N1977       N  0.45531669  0.10903162  0.33625628    -0.38400
N1978       N  0.45763286  0.16986856  0.40428008    -0.38400
N1979       N  0.49181836  0.11150837  0.36276487    -0.37900
N1980       N  0.42228168  0.16920510  0.37570804    -0.37900
C1981       C  0.32102811  0.12696652  0.33911094    -0.04500
C1982       C  0.31203030  0.13895810  0.33334577    -0.01700
C1983       C  0.29684664  0.14068973  0.33813074     0.03300
C1984       C  0.29062358  0.13074768  0.34912543    -0.04500
C1985       C  0.29971270  0.11890379  0.35508146    -0.01700
C1986       C  0.31483484  0.11700698  0.35006762     0.03300
C1987       C  0.31855897  0.14997040  0.32294391     0.38000
C1988       C  0.29367265  0.10887480  0.36668752     0.38000
C1989       C  0.32395600  0.10465239  0.35606412     0.36400
C1990       C  0.28752326  0.15244950  0.33128740     0.36400
N1991       N  0.33122586  0.09480496  0.36087303    -0.38400
N1992       N  0.28012118  0.16181122  0.32576187    -0.38400
N1993       N  0.28886574  0.10087013  0.37594866    -0.37900
N1994       N  0.32378850  0.15881075  0.31473356    -0.37900
C1995       C  0.39356054  0.12251863  0.06521805    -0.04500
C1996       C  0.38157320  0.13294219  0.06768242    -0.01700
C1997       C  0.38137237  0.14212942  0.08083431     0.03300
C1998       C  0.39339154  0.14135917  0.09144787    -0.04500
C1999       C  0.40533471  0.13088093  0.08903784    -0.01700
C2000       C  0.40531819  0.12137713  0.07610134     0.03300
C2001       C  0.36926807  0.13412339  0.05678851     0.38000
C2002       C  0.41813356  0.13042634  0.09939755     0.38000
C2003       C  0.41786533  0.11096283  0.07365746     0.36400
C2004       C  0.36852519  0.15208693  0.08363468     0.36400
N2005       N  0.42785717  0.10263329  0.07172536    -0.38400
N2006       N  0.35826223  0.15998809  0.08591543    -0.38400
N2007       N  0.42841090  0.13008708  0.10757568    -0.37900
N2008       N  0.35946533  0.13517537  0.04810078    -0.37900
C2009       C  0.39866913  0.16037219  0.21553735    -0.04500
C2010       C  0.40986548  0.15015607  0.22083035    -0.01700
C2011       C  0.40883704  0.14396293  0.23561455     0.03300
C2012       C  0.39678180  0.14821259  0.24536049    -0.04500
C2013       C  0.38583649  0.15878337  0.24018259    -0.01700
C2014       C  0.38659737  0.16457112  0.22525746     0.03300
C2015       C  0.42265555  0.14626792  0.21117604     0.38000
C2016       C  0.37402380  0.16417754  0.25035527     0.38000
C2017       C  0.37455128  0.17438584  0.21974137     0.36400
C2018       C  0.41997119  0.13287468  0.24059204     0.36400
N2019       N  0.36487766  0.18212268  0.21533352    -0.38400
N2020       N  0.42884796  0.12398835  0.24448641    -0.38400
N2021       N  0.36464530  0.16853781  0.25848233    -0.37900
N2022       N  0.43287669  0.14323387  0.20347516    -0.37900
C2023       C  0.38322153  0.41159287  0.14641990    -0.04500
C2024       C  0.39444649  0.41281996  0.15782262    -0.01700
C2025       C  0.40370982  0.42587491  0.15864951     0.03300
C2026       C  0.40177624  0.43786012  0.14811816    -0.04500
C2027       C  0.39074404  0.43647073  0.13652397    -0.01700
C2028       C  0.38144274  0.42347390  0.13575794     0.03300
C2029       C  0.39601077  0.40097043  0.16918586     0.38000
C2030       C  0.38930047  0.44814330  0.12494957     0.38000
C2031       C  0.37027791  0.42222059  0.12369862     0.36400
C2032       C  0.41486233  0.42714478  0.17070524     0.36400
N2033       N  0.36135443  0.42128651  0.11409908    -0.38400
N2034       N  0.42377387  0.42810378  0.18031346    -0.38400
N2035       N  0.38814940  0.45741310  0.11568767    -0.37900
N2036       N  0.39722892  0.39155021  0.17828472    -0.37900
C2037       C  0.36713325  0.28648077  0.13776780    -0.04500
C2038       C  0.36005873  0.27590650  0.14760493    -0.01700
C2039       C  0.36541277  0.26082614  0.14847704     0.03300
C2040       C  0.37798874  0.25614835  0.13965294    -0.04500
C2041       C  0.38484752  0.26657901  0.12956090    -0.01700
C2042       C  0.37943774  0.28167519  0.12861158     0.03300
C2043       C  0.34742374  0.28053452  0.15714593     0.38000
C2044       C  0.39767516  0.26187762  0.12033777     0.38000
C2045       C  0.38621703  0.29210299  0.11779679     0.36400
C2046       C  0.35760928  0.24997935  0.15814729     0.36400
N2047       N  0.39157816  0.30039987  0.10911720    -0.38400
N2048       N  0.35136706  0.24131751  0.16581973    -0.38400
N2049       N  0.40789930  0.25813198  0.11296167    -0.37900
N2050       N  0.33730200  0.28413761  0.16473309    -0.37900
C2051       C  0.26999515  0.35908418  0.15122615    -0.04500
C2052       C  0.26536465  0.34899525  0.16284782    -0.01700
C2053       C  0.25031544  0.34930206  0.16829441     0.03300
C2054       C  0.23985742  0.36014185  0.16266306    -0.04500
C2055       C  0.24456078  0.37036935  0.15116834    -0.01700
C2056       C  0.25947228  0.36964587  0.14529429     0.03300
C2057       C  0.27618234  0.33855249  0.16963818     0.38000
C2058       C  0.23427552  0.38203519  0.14570362     0.38000
C2059       C  0.26383495  0.37948800  0.13280130     0.36400
C2060       C  0.24555976  0.33806254  0.17939271     0.36400
N2061       N  0.26726402  0.38725965  0.12275910    -0.38400
N2062       N  0.24182689  0.32905485  0.18821830    -0.38400
N2063       N  0.22612142  0.39139545  0.14136205    -0.37900
N2064       N  0.28478235  0.33023283  0.17509309    -0.37900
C2065       C  0.88971764  0.08459177  0.37901752    -0.04500
C2066       C  0.88739411  0.07384986  0.39072991    -0.01700
C2067       C  0.89698017  0.06106069  0.39198917     0.03300
C2068       C  0.90861437  0.05854754  0.38119765    -0.04500
C2069       C  0.91112693  0.06943741  0.36964444    -0.01700
C2070       C  0.90184052  0.08249524  0.36868388     0.03300
C2071       C  0.87521845  0.07600620  0.40164194     0.38000
C2072       C  0.92271930  0.06686125  0.35820180     0.38000
C2073       C  0.90432022  0.09337262  0.35654126     0.36400
C2074       C  0.89511807  0.05070028  0.40469155     0.36400
N2075       N  0.90633593  0.10203130  0.34684806    -0.38400
N2076       N  0.89369549  0.04251080  0.41488666    -0.38400
N2077       N  0.93193060  0.06479199  0.34904229    -0.37900
N2078       N  0.86545489  0.07765965  0.41029740    -0.37900
C2079       C  0.90255971  0.35370806  0.41246691    -0.04500
C2080       C  0.91401741  0.36490600  0.41354169    -0.01700
C2081       C  0.91505011  0.37425865  0.42658389     0.03300
C2082       C  0.90468541  0.37247758  0.43873067    -0.04500
C2083       C  0.89306396  0.36146943  0.43752947    -0.01700
C2084       C  0.89202234  0.35213912  0.42451110     0.03300
C2085       C  0.92525213  0.36633373  0.40156751     0.38000
C2086       C  0.88183578  0.35999018  0.44952132     0.38000
C2087       C  0.87980419  0.34115314  0.42340344     0.36400
C2088       C  0.92722774  0.38526797  0.42777008     0.36400
N2089       N  0.87007332  0.33237620  0.42254343    -0.38400
N2090       N  0.93694703  0.39404536  0.42874156    -0.38400
N2091       N  0.87285095  0.35879757  0.45905181    -0.37900
N2092       N  0.93427728  0.36746065  0.39206807    -0.37900
C2093       C  0.87991640  0.23947984  0.36647465    -0.04500
C2094       C  0.86958950  0.23550449  0.37815906    -0.01700
C2095       C  0.86495756  0.22025808  0.38006464     0.03300
C2096       C  0.87053400  0.20876269  0.37032153    -0.04500
C2097       C  0.88124596  0.21262106  0.35897753    -0.01700
C2098       C  0.88586223  0.22787976  0.35703292     0.03300
C2099       C  0.86315580  0.24713671  0.38791346     0.38000
C2100       C  0.88720014  0.20099954  0.34890485     0.38000
C2101       C  0.89691566  0.23155792  0.34536212     0.36400
C2102       C  0.85459834  0.21637661  0.39229984     0.36400
N2103       N  0.90569395  0.23446407  0.33601040    -0.38400
N2104       N  0.84634489  0.21327469  0.40205802    -0.38400
N2105       N  0.89201451  0.19176282  0.34087149    -0.37900
N2106       N  0.85799165  0.25635487  0.39574796    -0.37900
C2107       C  0.93833165  0.36259319  0.14398701    -0.04500
C2108       C  0.95117058  0.37136648  0.14795318    -0.01700
C2109       C  0.96454971  0.37059431  0.13914459     0.03300
C2110       C  0.96527277  0.36104148  0.12622462    -0.04500
C2111       C  0.95243239  0.35233861  0.12219770    -0.01700
C2112       C  0.93898155  0.35322924  0.13091575     0.03300
C2113       C  0.95049426  0.38169323  0.16079645     0.38000
C2114       C  0.95329898  0.34179766  0.10954785     0.38000
C2115       C  0.92599901  0.34407175  0.12661797     0.36400
C2116       C  0.97745287  0.37996957  0.14326238     0.36400
N2117       N  0.91564102  0.33681904  0.12307856    -0.38400
N2118       N  0.98774862  0.38740275  0.14660810    -0.38400
N2119       N  0.95402450  0.33330785  0.09953259    -0.37900
N2120       N  0.95000740  0.38996876  0.17100424    -0.37900
C2121       C  0.88488940  0.34696801  0.25708886    -0.04500
C2122       C  0.87493641  0.33567494  0.26271976    -0.01700
C2123       C  0.87558944  0.33113178  0.27810120     0.03300
C2124       C  0.88689225  0.33700346  0.28790498    -0.04500
C2125       C  0.89687306  0.34830557  0.28227515    -0.01700
C2126       C  0.89566297  0.35345970  0.26707319     0.03300
C2127       C  0.86435588  0.32814640  0.25258301     0.38000
C2128       C  0.90872604  0.35442835  0.29191775     0.38000
C2129       C  0.90527914  0.36578579  0.26187487     0.36400
C2130       C  0.86411112  0.32083335  0.28391111     0.36400
N2131       N  0.91290808  0.37568229  0.25780746    -0.38400
N2132       N  0.85484731  0.31271854  0.28849311    -0.38400
N2133       N  0.91819880  0.35936614  0.29956049    -0.37900
N2134       N  0.85595696  0.32206658  0.24451913    -0.37900
C2135       C  0.62071550  0.13907969  0.36245648    -0.04500
C2136       C  0.61697965  0.12761390  0.37307108    -0.01700
C2137       C  0.60370608  0.12884504  0.38204135     0.03300
C2138       C  0.59406231  0.14164617  0.38062360    -0.04500
C2139       C  0.59811802  0.15338085  0.37040965    -0.01700
C2140       C  0.61132286  0.15207953  0.36135237     0.03300
C2141       C  0.62647853  0.11420762  0.37441036     0.38000
C2142       C  0.58901603  0.16710707  0.36958056     0.38000
C2143       C  0.61552005  0.16442364  0.35125710     0.36400
C2144       C  0.59970131  0.11655559  0.39227456     0.36400
N2145       N  0.61890402  0.17427748  0.34323297    -0.38400
N2146       N  0.59652726  0.10675647  0.40045059    -0.38400
N2147       N  0.58183545  0.17810777  0.36893667    -0.37900
N2148       N  0.63403897  0.10350708  0.37554603    -0.37900
C2149       C  0.74548399  0.12797261  0.34458416    -0.04500
C2150       C  0.74992303  0.11941001  0.35748081    -0.01700
C2151       C  0.76470618  0.12092003  0.36357946     0.03300
C2152       C  0.77532213  0.13080027  0.35671396    -0.04500
C2153       C  0.77114974  0.13879737  0.34342602    -0.01700
C2154       C  0.75631374  0.13756826  0.33750956     0.03300
C2155       C  0.73946433  0.10862955  0.36424566     0.38000
C2156       C  0.78229290  0.14800377  0.33548168     0.38000
C2157       C  0.75224296  0.14663537  0.32434942     0.36400
C2158       C  0.76884951  0.11254414  0.37716355     0.36400
N2159       N  0.74917116  0.15387640  0.31380503    -0.38400
N2160       N  0.77212195  0.10585698  0.38800773    -0.38400
N2161       N  0.79120091  0.15529480  0.32913791    -0.37900
N2162       N  0.73116280  0.09997228  0.36961791    -0.37900
C2163       C  0.66985086  0.41078562  0.14180729    -0.04500
C2164       C  0.67386070  0.42221143  0.15239834    -0.01700
C2165       C  0.66529839  0.43570729  0.15337396     0.03300
C2166       C  0.65233087  0.43771064  0.14419277    -0.04500
C2167       C  0.64810148  0.42625485  0.13382344    -0.01700
C2168       C  0.65691993  0.41291909  0.13249035     0.03300
C2169       C  0.68648589  0.41996120  0.16274632     0.38000
C2170       C  0.63503630  0.42849106  0.12402955     0.38000
C2171       C  0.65302120  0.40177789  0.12099994     0.36400
C2172       C  0.66971915  0.44745957  0.16406253     0.36400
N2173       N  0.64987566  0.39296017  0.11177576    -0.38400
N2174       N  0.67328262  0.45686914  0.17251562    -0.38400
N2175       N  0.62462694  0.43031428  0.11621936    -0.37900
N2176       N  0.69652516  0.41823318  0.17104786    -0.37900
C2177       C  0.78274570  0.35724196  0.14612743    -0.04500
C2178       C  0.79265905  0.36838626  0.14019476    -0.01700
C2179       C  0.80781680  0.36933719  0.14537924     0.03300
C2180       C  0.81313780  0.35935624  0.15682367    -0.04500
C2181       C  0.80333761  0.34788607  0.16237373    -0.01700
C2182       C  0.78826659  0.34682729  0.15706479     0.03300
C2183       C  0.78734410  0.37877137  0.12853412     0.38000
C2184       C  0.80881309  0.33681333  0.17331173     0.38000
C2185       C  0.77835463  0.33523060  0.16331384     0.36400
C2186       C  0.81778171  0.38083397  0.13907325     0.36400
N2187       N  0.77052223  0.32591221  0.16826917    -0.38400
N2188       N  0.82570458  0.38994791  0.13388841    -0.38400
N2189       N  0.81310593  0.32796172  0.18204267    -0.37900
N2190       N  0.78309497  0.38706834  0.11925410    -0.37900
C2191       C  0.66313365  0.13815289  0.09326588    -0.04500
C2192       C  0.65299448  0.12571994  0.09235538    -0.01700
C2193       C  0.65250350  0.11662453  0.07911277     0.03300
C2194       C  0.66229422  0.11973324  0.06676382    -0.04500
C2195       C  0.67299610  0.13161063  0.06803400    -0.01700
C2196       C  0.67338551  0.14078412  0.08116295     0.03300
C2197       C  0.64269121  0.12250981  0.10481393     0.38000
C2198       C  0.68400121  0.13413387  0.05600252     0.38000
C2199       C  0.68478301  0.15261022  0.08237944     0.36400
C2200       C  0.64144816  0.10447632  0.07796999     0.36400
N2201       N  0.69390726  0.16200846  0.08331707    -0.38400
N2202       N  0.63261771  0.09479710  0.07705598    -0.38400
N2203       N  0.69279281  0.13610857  0.04642254    -0.37900
N2204       N  0.63451346  0.11983362  0.11476144    -0.37900
C2205       C  0.67060469  0.15996400  0.21766727    -0.04500
C2206       C  0.66002549  0.14929899  0.22330011    -0.01700
C2207       C  0.66072105  0.14446418  0.23858470     0.03300
C2208       C  0.67187844  0.15040568  0.24847104    -0.04500
C2209       C  0.68216693  0.16143936  0.24294611    -0.01700
C2210       C  0.68164673  0.16606166  0.22758960     0.03300
C2211       C  0.64799576  0.14371941  0.21353498     0.38000
C2212       C  0.69290538  0.16857913  0.25319753     0.38000
C2213       C  0.69271402  0.17691050  0.22197831     0.36400
C2214       C  0.65005018  0.13315615  0.24401132     0.36400
N2215       N  0.70156122  0.18556374  0.21755832    -0.38400
N2216       N  0.64148649  0.12415833  0.24829232    -0.38400
N2217       N  0.70140899  0.17435823  0.26137247    -0.37900
N2218       N  0.63837138  0.13934765  0.20574095    -0.37900
C2219       C  0.67592963  0.25421027  0.13954993    -0.04500
C2220       C  0.66785838  0.26442763  0.13016306    -0.01700
C2221       C  0.67248532  0.27975484  0.12900131     0.03300
C2222       C  0.68525467  0.28498693  0.13720423    -0.04500
C2223       C  0.69321962  0.27475700  0.14671965    -0.01700
C2224       C  0.68872746  0.25943226  0.14770343     0.03300
C2225       C  0.65457516  0.25926388  0.12192844     0.38000
C2226       C  0.70577081  0.28004008  0.15599885     0.38000
C2227       C  0.69765499  0.24894484  0.15679719     0.36400
C2228       C  0.66424215  0.29003116  0.11909899     0.36400
N2229       N  0.70479309  0.24060028  0.16403508    -0.38400
N2230       N  0.65762261  0.29822388  0.11122446    -0.38400
N2231       N  0.71576111  0.28418547  0.16345024    -0.37900
N2232       N  0.64397995  0.25514393  0.11535441    -0.37900
C2233       C  0.41894290  0.87205017  0.06117927    -0.04500
C2234       C  0.40610498  0.87393125  0.07064417    -0.01700
C2235       C  0.40464350  0.86531918  0.08411523     0.03300
C2236       C  0.41607749  0.85485096  0.08831408    -0.04500
C2237       C  0.42904183  0.85318076  0.07898601    -0.01700
C2238       C  0.43046906  0.86174463  0.06548521     0.03300
C2239       C  0.39410902  0.88435673  0.06626769     0.38000
C2240       C  0.44113595  0.84292205  0.08347664     0.38000
C2241       C  0.44407233  0.86032895  0.05628213     0.36400
C2242       C  0.39101484  0.86674683  0.09327910     0.36400
N2243       N  0.45493981  0.85926823  0.04895604    -0.38400
N2244       N  0.38011713  0.86784106  0.10055564    -0.38400
N2245       N  0.45080790  0.83476917  0.08706310    -0.37900
N2246       N  0.38454138  0.89267711  0.06278535    -0.37900
C2247       C  0.44009621  0.86491192  0.35719774    -0.04500
C2248       C  0.45103972  0.85335941  0.35503412    -0.01700
C2249       C  0.46429393  0.85311047  0.36393293     0.03300
C2250       C  0.46663071  0.86430113  0.37516457    -0.04500
C2251       C  0.45529282  0.87530997  0.37797142    -0.01700
C2252       C  0.44209122  0.87568179  0.36893793     0.03300
C2253       C  0.44848537  0.84140556  0.34396992     0.38000
C2254       C  0.45743024  0.88662525  0.38976771     0.38000
C2255       C  0.43091068  0.88756577  0.37134272     0.36400
C2256       C  0.47534087  0.84104370  0.36180394     0.36400
N2257       N  0.42201961  0.89705915  0.37329639    -0.38400
N2258       N  0.48412254  0.83139932  0.36012358    -0.38400
N2259       N  0.45909016  0.89561952  0.39921004    -0.37900
N2260       N  0.44643868  0.83185346  0.33517621    -0.37900
C2261       C  0.39251526  0.84979638  0.24318124    -0.04500
C2262       C  0.38507040  0.85788945  0.23147498    -0.01700
C2263       C  0.38619021  0.85297369  0.21623806     0.03300
C2264       C  0.39523798  0.84024225  0.21248275    -0.04500
C2265       C  0.40325567  0.83257909  0.22412562    -0.01700
C2266       C  0.40170400  0.83716534  0.23941097     0.03300
C2267       C  0.37651225  0.87152348  0.23505438     0.38000
C2268       C  0.41334298  0.82006518  0.22040169     0.38000
C2269       C  0.40910096  0.82841643  0.25127665     0.36400
C2270       C  0.37740859  0.86061717  0.20457491     0.36400
N2271       N  0.41498368  0.82136777  0.26069422    -0.38400
N2272       N  0.37029232  0.86668236  0.19533007    -0.38400
N2273       N  0.42139891  0.81009919  0.21743715    -0.37900
N2274       N  0.36978020  0.88245067  0.23792830    -0.37900
C2275       C  0.17591129  0.91048041  0.36865264    -0.04500
C2276       C  0.16438477  0.91310604  0.35783647    -0.01700
C2277       C  0.15594202  0.92669651  0.35825709     0.03300
C2278       C  0.15897857  0.93771909  0.36951486    -0.04500
C2279       C  0.17052305  0.93509305  0.38032865    -0.01700
C2280       C  0.17890522  0.92146070  0.37994999     0.03300
C2281       C  0.16151101  0.90204274  0.34596578     0.38000
C2282       C  0.17348747  0.94619614  0.39214525     0.38000
C2283       C  0.19022410  0.91847920  0.39155379     0.36400
C2284       C  0.14450565  0.92956867  0.34673750     0.36400
N2285       N  0.19918903  0.91605450  0.40085370    -0.38400
N2286       N  0.13539350  0.93189876  0.33755698    -0.38400
N2287       N  0.17586906  0.95504607  0.40156739    -0.37900
N2288       N  0.15920058  0.89325051  0.33647351    -0.37900
C2289       C  0.28681126  0.85569633  0.35338677    -0.04500
C2290       C  0.29667548  0.86664073  0.35971213    -0.01700
C2291       C  0.31156347  0.86829198  0.35402628     0.03300
C2292       C  0.31681976  0.85874426  0.34219466    -0.04500
C2293       C  0.30723531  0.84718007  0.33656046    -0.01700
C2294       C  0.29220745  0.84589606  0.34185428     0.03300
C2295       C  0.29162063  0.87603946  0.37229693     0.38000
C2296       C  0.31293419  0.83619890  0.32564257     0.38000
C2297       C  0.28216534  0.83486341  0.33487185     0.36400
C2298       C  0.32124887  0.88013067  0.36012809     0.36400
N2299       N  0.27418807  0.82607726  0.32924673    -0.38400
N2300       N  0.32893234  0.88956699  0.36507149    -0.38400
N2301       N  0.31746627  0.82737178  0.31700834    -0.37900
N2302       N  0.28762635  0.88349458  0.38237242    -0.37900
C2303       C  0.38694150  0.58843968  0.13576863    -0.04500
C2304       C  0.39754913  0.58426954  0.12443105    -0.01700
C2305       C  0.40623008  0.57086731  0.12605203     0.03300
C2306       C  0.40438528  0.56159564  0.13902499    -0.04500
C2307       C  0.39421612  0.56605398  0.15059756    -0.01700
C2308       C  0.38554286  0.57940573  0.14899802     0.03300
C2309       C  0.39921367  0.59347504  0.11085023     0.38000
C2310       C  0.39303354  0.55714887  0.16444045     0.38000
C2311       C  0.37559305  0.58408908  0.16129751     0.36400
C2312       C  0.41666916  0.56635398  0.11410931     0.36400
N2313       N  0.36768286  0.58780018  0.17113156    -0.38400
N2314       N  0.42498374  0.56276699  0.10456700    -0.38400
N2315       N  0.39214369  0.55007172  0.17549252    -0.37900
N2316       N  0.40058864  0.60082682  0.10002800    -0.37900
C2317       C  0.37611404  0.71312898  0.13253932    -0.04500
C2318       C  0.37022154  0.72488229  0.12331187    -0.01700
C2319       C  0.37564621  0.73987377  0.12483740     0.03300
C2320       C  0.38713259  0.74322741  0.13550987    -0.04500
C2321       C  0.39344379  0.73138962  0.14433177    -0.01700
C2322       C  0.38806522  0.71637188  0.14275930     0.03300
C2323       C  0.35875032  0.72150268  0.11198567     0.38000
C2324       C  0.40549941  0.73466275  0.15507271     0.38000
C2325       C  0.39457808  0.70439470  0.15202946     0.36400
C2326       C  0.36882789  0.75196245  0.11593369     0.36400
N2327       N  0.39988555  0.69486785  0.15938262    -0.38400
N2328       N  0.36334313  0.76160675  0.10887118    -0.38400
N2329       N  0.41507693  0.73729322  0.16367012    -0.37900
N2330       N  0.34965959  0.71879045  0.10289940    -0.37900
C2331       C  0.14949884  0.64302864  0.41785258    -0.04500
C2332       C  0.13933257  0.63067660  0.41923505    -0.01700
C2333       C  0.13965973  0.62128727  0.43229018     0.03300
C2334       C  0.15005209  0.62424175  0.44417998    -0.04500
C2335       C  0.16030647  0.63650968  0.44270236    -0.01700
C2336       C  0.16011834  0.64574529  0.42959283     0.03300
C2337       C  0.12821801  0.62783166  0.40741548     0.38000
C2338       C  0.17157799  0.63932904  0.45438460     0.38000
C2339       C  0.17144703  0.65759344  0.42792161     0.36400
C2340       C  0.12897359  0.60883222  0.43362551     0.36400
N2341       N  0.18050871  0.66700656  0.42657232    -0.38400
N2342       N  0.12046517  0.59887572  0.43463883    -0.38400
N2343       N  0.18058767  0.64164447  0.46366066    -0.37900
N2344       N  0.11934192  0.62553308  0.39800473    -0.37900
C2345       C  0.17584512  0.75502061  0.36946899    -0.04500
C2346       C  0.18668490  0.75890457  0.38064290    -0.01700
C2347       C  0.19180481  0.77402057  0.38195886     0.03300
C2348       C  0.18669562  0.78523563  0.37166100    -0.04500
C2349       C  0.17583100  0.78137166  0.36051208    -0.01700
C2350       C  0.17020339  0.76640862  0.35963321     0.03300
C2351       C  0.19330535  0.74722508  0.39021447     0.38000
C2352       C  0.17101243  0.79254230  0.34937358     0.38000
C2353       C  0.15849048  0.76278948  0.34862998     0.36400
C2354       C  0.20221495  0.77806090  0.39407389     0.36400
N2355       N  0.14911784  0.75994101  0.33987826    -0.38400
N2356       N  0.21044317  0.78130629  0.40378840    -0.38400
N2357       N  0.16724189  0.80140756  0.34041751    -0.37900
N2358       N  0.19871506  0.73791038  0.39776123    -0.37900
C2359       C  0.12131432  0.63610021  0.14666897    -0.04500
C2360       C  0.12068144  0.62496514  0.13509371    -0.01700
C2361       C  0.10746490  0.62332439  0.12611095     0.03300
C2362       C  0.09477150  0.63294716  0.12842342    -0.04500
C2363       C  0.09570310  0.64452593  0.13954530    -0.01700
C2364       C  0.10882959  0.64603176  0.14864458     0.03300
C2365       C  0.13339841  0.61473827  0.13274232     0.38000
C2366       C  0.08337129  0.65532551  0.14132841     0.38000
C2367       C  0.10963283  0.65819287  0.15975105     0.36400
C2368       C  0.10677121  0.61123090  0.11493717     0.36400
N2369       N  0.11027191  0.66789251  0.16860254    -0.38400
N2370       N  0.10627415  0.60156724  0.10603700    -0.38400
N2371       N  0.07358710  0.66399472  0.14276667    -0.37900
N2372       N  0.14354534  0.60660265  0.13078869    -0.37900
C2373       C  0.24604606  0.63997252  0.16747300    -0.04500
C2374       C  0.25139575  0.62975456  0.15628975    -0.01700
C2375       C  0.26645520  0.63081208  0.15083103     0.03300
C2376       C  0.27652429  0.64179850  0.15685967    -0.04500
C2377       C  0.27131774  0.65158518  0.16851881    -0.01700
C2378       C  0.25609441  0.65094546  0.17349587     0.03300
C2379       C  0.24155582  0.61779425  0.15069151     0.38000
C2380       C  0.28175622  0.66192363  0.17596236     0.38000
C2381       C  0.25069490  0.66201808  0.18446711     0.36400
C2382       C  0.27138315  0.62074973  0.13873384     0.36400
N2383       N  0.24641037  0.67091188  0.19315958    -0.38400
N2384       N  0.27524220  0.61267436  0.12909394    -0.38400
N2385       N  0.29007301  0.67009823  0.18200309    -0.37900
N2386       N  0.23373983  0.60820760  0.14627657    -0.37900
C2387       C  0.16725614  0.64793576  0.26302337    -0.04500
C2388       C  0.17571854  0.64017296  0.27429543    -0.01700
C2389       C  0.17514038  0.64495577  0.28959699     0.03300
C2390       C  0.16595671  0.65741733  0.29380007    -0.04500
C2391       C  0.15698108  0.66474537  0.28268619    -0.01700
C2392       C  0.15766718  0.66009163  0.26737229     0.03300
C2393       C  0.18496052  0.62713560  0.27021486     0.38000
C2394       C  0.14692055  0.67709636  0.28700083     0.38000
C2395       C  0.14897983  0.66838004  0.25607537     0.36400
C2396       C  0.18456035  0.63746896  0.30087014     0.36400
N2397       N  0.14199171  0.67505500  0.24715676    -0.38400
N2398       N  0.19212429  0.63151450  0.30982778    -0.38400
N2399       N  0.13893776  0.68696292  0.29045401    -0.37900
N2400       N  0.19233990  0.61673776  0.26698420    -0.37900
C2401       C  0.12163092  0.36687814  0.85744264    -0.04500
C2402       C  0.10957592  0.37726560  0.85527753    -0.01700
C2403       C  0.09625028  0.37616690  0.86412911     0.03300
C2404       C  0.09481086  0.36465455  0.87525761    -0.04500
C2405       C  0.10701074  0.35449360  0.87768476    -0.01700
C2406       C  0.12035236  0.35559310  0.86881860     0.03300
C2407       C  0.11105234  0.38945894  0.84426863     0.38000
C2408       C  0.10564315  0.34249763  0.88891370     0.38000
C2409       C  0.13250885  0.34468131  0.87102919     0.36400
C2410       C  0.08422800  0.38727127  0.86209957     0.36400
N2411       N  0.14219523  0.33596671  0.87280370    -0.38400
N2412       N  0.07465464  0.39614197  0.86048973    -0.38400
N2413       N  0.10456990  0.33291837  0.89786231    -0.37900
N2414       N  0.11222069  0.39921370  0.83552421    -0.37900
C2415       C  0.38991315  0.41309634  0.86845663    -0.04500
C2416       C  0.40031572  0.41586127  0.88037193    -0.01700
C2417       C  0.40894760  0.42935434  0.88054990     0.03300
C2418       C  0.40730563  0.44017400  0.86881339    -0.04500
C2419       C  0.39727257  0.43723316  0.85666943    -0.01700
C2420       C  0.38857910  0.42377724  0.85649988     0.03300
C2421       C  0.40168455  0.40518886  0.89286577     0.38000
C2422       C  0.39621952  0.44785394  0.84409389     0.38000
C2423       C  0.37853393  0.42078626  0.84378464     0.36400
C2424       C  0.41907600  0.43239464  0.89318181     0.36400
N2425       N  0.37051406  0.41841475  0.83364911    -0.38400
N2426       N  0.42713958  0.43485912  0.90325739    -0.38400
N2427       N  0.39542825  0.45626402  0.83401032    -0.37900
N2428       N  0.40281183  0.39670001  0.90285027    -0.37900
C2429       C  0.27668078  0.36448891  0.85296552    -0.04500
C2430       C  0.27143562  0.35603205  0.84036170    -0.01700
C2431       C  0.25643736  0.35788683  0.83505981     0.03300
C2432       C  0.24671908  0.36879191  0.84178148    -0.04500
C2433       C  0.25209301  0.37757248  0.85409497    -0.01700
C2434       C  0.26689012  0.37523403  0.85984289     0.03300
C2435       C  0.28166660  0.34591332  0.83229748     0.38000
C2436       C  0.24263128  0.38947187  0.86048424     0.38000
C2437       C  0.27188751  0.38370984  0.87305700     0.36400
C2438       C  0.25093642  0.34820482  0.82291056     0.36400
N2439       N  0.27581690  0.39045527  0.88363062    -0.38400
N2440       N  0.24656010  0.34043678  0.81325655    -0.38400
N2441       N  0.23513226  0.39904764  0.86549302    -0.37900
N2442       N  0.28983985  0.33794166  0.82576485    -0.37900
C2443       C  0.39864922  0.14172863  0.91476279    -0.04500
C2444       C  0.41155308  0.13264284  0.91767269    -0.01700
C2445       C  0.41203036  0.12318202  0.93062541     0.03300
C2446       C  0.39975717  0.12303380  0.94099824    -0.04500
C2447       C  0.38672224  0.13191801  0.93789927    -0.01700
C2448       C  0.38610356  0.14106270  0.92474256     0.03300
C2449       C  0.42469143  0.13360032  0.90775831     0.38000
C2450       C  0.37376103  0.13146264  0.94808531     0.38000
C2451       C  0.37233712  0.14943596  0.92124138     0.36400
C2452       C  0.42547767  0.11412194  0.93356411     0.36400
N2453       N  0.36131762  0.15602304  0.91840911    -0.38400
N2454       N  0.43620839  0.10687214  0.93583146    -0.38400
N2455       N  0.36343550  0.13116636  0.95622332    -0.37900
N2456       N  0.43518696  0.13444314  0.89988314    -0.37900
C2457       C  0.37340896  0.28803061  0.87246350    -0.04500
C2458       C  0.38486498  0.28381822  0.86199755    -0.01700
C2459       C  0.38906009  0.26840557  0.86034385     0.03300
C2460       C  0.38186261  0.25702725  0.86912948    -0.04500
C2461       C  0.37098284  0.26136664  0.88016199    -0.01700
C2462       C  0.36690164  0.27678005  0.88189473     0.03300
C2463       C  0.39207029  0.29521886  0.85252663     0.38000
C2464       C  0.36340368  0.24997131  0.88935130     0.38000
C2465       C  0.35617110  0.28109110  0.89366378     0.36400
C2466       C  0.40096650  0.26432273  0.84968216     0.36400
N2467       N  0.34767356  0.28452378  0.90310009    -0.38400
N2468       N  0.41045372  0.26108515  0.84116527    -0.38400
N2469       N  0.35733604  0.24093117  0.89672220    -0.37900
N2470       N  0.39792165  0.30426850  0.84499414    -0.37900
C2471       C  0.16294527  0.35080415  0.59025669    -0.04500
C2472       C  0.15311720  0.36342473  0.58893630    -0.01700
C2473       C  0.15365114  0.37277984  0.57591438     0.03300
C2474       C  0.16411978  0.36964857  0.56410549    -0.04500
C2475       C  0.17417555  0.35717756  0.56562093    -0.01700
C2476       C  0.17341840  0.34766770  0.57850664     0.03300
C2477       C  0.14199896  0.36645666  0.60074398     0.38000
C2478       C  0.18584158  0.35448180  0.55427140     0.38000
C2479       C  0.18375559  0.33488088  0.57982048     0.36400
C2480       C  0.14304069  0.38532392  0.57456207     0.36400
N2481       N  0.19195730  0.32464747  0.58081235    -0.38400
N2482       N  0.13457170  0.39533930  0.57359233    -0.38400
N2483       N  0.19521090  0.35235155  0.54528824    -0.37900
N2484       N  0.13312433  0.36883271  0.61015766    -0.37900
C2485       C  0.17356794  0.34213134  0.71484663    -0.04500
C2486       C  0.16288265  0.35323729  0.71941211    -0.01700
C2487       C  0.16351670  0.35952319  0.73417357     0.03300
C2488       C  0.17486521  0.35480850  0.74452557    -0.04500
C2489       C  0.18558288  0.34372258  0.73990287    -0.01700
C2490       C  0.18497054  0.33749183  0.72514891     0.03300
C2491       C  0.15085532  0.35785539  0.70913346     0.38000
C2492       C  0.19695930  0.33816991  0.75046480     0.38000
C2493       C  0.19631977  0.32643815  0.72052854     0.36400
C2494       C  0.15254463  0.37101133  0.73859453     0.36400
N2495       N  0.20535239  0.31759898  0.71688400    -0.38400
N2496       N  0.14374074  0.38013715  0.74208788    -0.38400
N2497       N  0.20607198  0.33369975  0.75881952    -0.37900
N2498       N  0.14125912  0.36155090  0.70094565    -0.37900
C2499       C  0.44331876  0.12936762  0.64881240    -0.04500
C2500       C  0.44622130  0.11767171  0.63820923    -0.01700
C2501       C  0.45959657  0.11791510  0.62936924     0.03300
C2502       C  0.47023391  0.12979049  0.63116159    -0.04500
C2503       C  0.46731567  0.14149780  0.64173330    -0.01700
C2504       C  0.45394162  0.14128281  0.65054005     0.03300
C2505       C  0.43586065  0.10493446  0.63695274     0.38000
C2506       C  0.47785275  0.15406735  0.64323929     0.38000
C2507       C  0.45102609  0.15354401  0.66118182     0.36400
C2508       C  0.46267634  0.10558615  0.61886288     0.36400
N2509       N  0.44874676  0.16328240  0.66972128    -0.38400
N2510       N  0.46513624  0.09575373  0.61048351    -0.38400
N2511       N  0.48621377  0.16412409  0.64443610    -0.37900
N2512       N  0.42766758  0.09471324  0.63600488    -0.37900
C2513       C  0.39389743  0.14917587  0.76063209    -0.04500
C2514       C  0.40212560  0.16258499  0.76377291    -0.01700
C2515       C  0.40392424  0.16758935  0.77889454     0.03300
C2516       C  0.39679318  0.15973804  0.79097111    -0.04500
C2517       C  0.38867637  0.14623112  0.78782325    -0.01700
C2518       C  0.38753721  0.14081776  0.77276678     0.03300
C2519       C  0.40814403  0.17170824  0.75142313     0.38000
C2520       C  0.38088840  0.13817326  0.79991156     0.38000
C2521       C  0.38006384  0.12643816  0.76980602     0.36400
C2522       C  0.41349120  0.18062789  0.78202039     0.36400
N2523       N  0.37420034  0.11492504  0.76743321    -0.38400
N2524       N  0.42121622  0.19095320  0.78451266    -0.38400
N2525       N  0.37460150  0.13172736  0.80949715    -0.37900
N2526       N  0.41284425  0.17908421  0.74160038    -0.37900
C2527       C  0.15497468  0.05744347  0.64019397    -0.04500
C2528       C  0.15424392  0.06820867  0.62830154    -0.01700
C2529       C  0.16325777  0.08143461  0.62883400     0.03300
C2530       C  0.17324544  0.08388355  0.64115037    -0.04500
C2531       C  0.17391183  0.07315630  0.65308416    -0.01700
C2532       C  0.16476390  0.06003097  0.65264391     0.03300
C2533       C  0.14481317  0.06532322  0.61510424     0.38000
C2534       C  0.18373932  0.07578790  0.66604843     0.38000
C2535       C  0.16517708  0.04937501  0.66523100     0.36400
C2536       C  0.16270854  0.09219538  0.61634858     0.36400
N2537       N  0.16551105  0.04090513  0.67529014    -0.38400
N2538       N  0.16226591  0.10077888  0.60639131    -0.38400
N2539       N  0.19158530  0.07787868  0.67637987    -0.37900
N2540       N  0.13736124  0.06298955  0.60453584    -0.37900
C2541       C  0.17860458  0.23961641  0.64394443    -0.04500
C2542       C  0.18970444  0.23547269  0.63308538    -0.01700
C2543       C  0.19455692  0.22023241  0.63186202     0.03300
C2544       C  0.18849795  0.20896023  0.64158845    -0.04500
C2545       C  0.17728324  0.21307592  0.65234735    -0.01700
C2546       C  0.17247371  0.22834230  0.65361104     0.03300
C2547       C  0.19682798  0.24701538  0.62371059     0.38000
C2548       C  0.17104282  0.20173974  0.66255849     0.38000
C2549       C  0.16124557  0.23243048  0.66497943     0.36400
C2550       C  0.20568594  0.21615861  0.62038561     0.36400
N2551       N  0.15238780  0.23568869  0.67414216    -0.38400
N2552       N  0.21456797  0.21294429  0.61123064    -0.38400
N2553       N  0.16601412  0.19271153  0.67068926    -0.37900
N2554       N  0.20258218  0.25622468  0.61629817    -0.37900
C2555       C  0.28704850  0.13501654  0.65418086    -0.04500
C2556       C  0.29252844  0.14442742  0.66599203    -0.01700
C2557       C  0.30779009  0.14345695  0.67068253     0.03300
C2558       C  0.31765148  0.13252186  0.66419798    -0.04500
C2559       C  0.31218267  0.12307645  0.65239694    -0.01700
C2560       C  0.29703100  0.12448217  0.64726533     0.03300
C2561       C  0.28235975  0.15475438  0.67388757     0.38000
C2562       C  0.32192616  0.11150245  0.64584579     0.38000
C2563       C  0.29184299  0.11528053  0.63461894     0.36400
C2564       C  0.31335538  0.15410902  0.68196701     0.36400
N2565       N  0.28774612  0.10797163  0.62449297    -0.38400
N2566       N  0.31771601  0.16264033  0.69096028    -0.38400
N2567       N  0.32964279  0.10222152  0.64061588    -0.37900
N2568       N  0.27429418  0.16297936  0.68023895    -0.37900
C2569       C  0.67207797  0.58623172  0.13615487    -0.04500
C2570       C  0.66124676  0.58515829  0.14794537    -0.01700
C2571       C  0.65126880  0.57264045  0.14862674     0.03300
C2572       C  0.65201218  0.56109272  0.13745938    -0.04500
C2573       C  0.66263488  0.56241703  0.12544166    -0.01700
C2574       C  0.67277339  0.57479059  0.12494357     0.03300
C2575       C  0.66101578  0.59644110  0.15996554     0.38000
C2576       C  0.66296426  0.55123383  0.11332467     0.38000
C2577       C  0.68393792  0.57573385  0.11283480     0.36400
C2578       C  0.64082394  0.57133493  0.16131739     0.36400
N2579       N  0.69292230  0.57641906  0.10325355    -0.38400
N2580       N  0.63250992  0.57034022  0.17146177    -0.38400
N2581       N  0.66325631  0.54236577  0.10362012    -0.37900
N2582       N  0.66090493  0.60536625  0.16961892    -0.37900
C2583       C  0.89841146  0.63777643  0.41317079    -0.04500
C2584       C  0.88658603  0.64017725  0.42375968    -0.01700
C2585       C  0.88606796  0.63175799  0.43738578     0.03300
C2586       C  0.89715013  0.62052426  0.44041349    -0.04500
C2587       C  0.90858612  0.61761444  0.42948409    -0.01700
C2588       C  0.90927139  0.62628294  0.41596043     0.03300
C2589       C  0.87456685  0.65095448  0.42037867     0.38000
C2590       C  0.92004437  0.60612765  0.43239761     0.38000
C2591       C  0.92150431  0.62374630  0.40520346     0.36400
C2592       C  0.87384392  0.63447209  0.44811740     0.36400
N2593       N  0.93129537  0.62171764  0.39665842    -0.38400
N2594       N  0.86410316  0.63671595  0.45666450    -0.38400
N2595       N  0.92917518  0.59694861  0.43470494    -0.37900
N2596       N  0.86495356  0.65948317  0.41759714    -0.37900
C2597       C  0.94280540  0.63199769  0.14310261    -0.04500
C2598       C  0.95406191  0.64338931  0.14432178    -0.01700
C2599       C  0.96729777  0.64275323  0.13523981     0.03300
C2600       C  0.96954572  0.63067551  0.12488090    -0.04500
C2601       C  0.95802616  0.61963720  0.12317836    -0.01700
C2602       C  0.94479303  0.62023223  0.13229215     0.03300
C2603       C  0.95198086  0.65598449  0.15474960     0.38000
C2604       C  0.96003732  0.60720288  0.11254467     0.38000
C2605       C  0.93366822  0.60815151  0.13111144     0.36400
C2606       C  0.97846019  0.65481905  0.13628374     0.36400
N2607       N  0.92483046  0.59847994  0.13018993    -0.38400
N2608       N  0.98736509  0.66444107  0.13706117    -0.38400
N2609       N  0.96156282  0.59726700  0.10406720    -0.37900
N2610       N  0.95041640  0.66604534  0.16307090    -0.37900
C2611       C  0.88998711  0.64222094  0.25779881    -0.04500
C2612       C  0.90061900  0.63579760  0.26795455    -0.01700
C2613       C  0.90183483  0.64129899  0.28300158     0.03300
C2614       C  0.89210774  0.65302887  0.28818930    -0.04500
C2615       C  0.88089319  0.65883921  0.27823688    -0.01700
C2616       C  0.87997167  0.65362217  0.26309766     0.03300
C2617       C  0.90995158  0.62310741  0.26307658     0.38000
C2618       C  0.86990263  0.66988677  0.28365711     0.38000
C2619       C  0.86889089  0.66034457  0.25290891     0.36400
C2620       C  0.91344685  0.63513169  0.29292881     0.36400
N2621       N  0.86000785  0.66573765  0.24485613    -0.38400
N2622       N  0.92273923  0.63016019  0.30078794    -0.38400
N2623       N  0.86111817  0.67866595  0.28799057    -0.37900
N2624       N  0.91726437  0.61288265  0.25920717    -0.37900
C2625       C  0.81805510  0.62702553  0.16016987    -0.04500
C2626       C  0.80807447  0.63765770  0.16696975    -0.01700
C2627       C  0.79308420  0.63928904  0.16160079     0.03300
C2628       C  0.78795145  0.63062472  0.14909150    -0.04500
C2629       C  0.79786307  0.61991747  0.14234548    -0.01700
C2630       C  0.81283447  0.61812671  0.14785853     0.03300
C2631       C  0.81326156  0.64734864  0.17925382     0.38000
C2632       C  0.79278041  0.61086258  0.12955750     0.38000
C2633       C  0.82272483  0.60680394  0.14108267     0.36400
C2634       C  0.78277488  0.64953175  0.16942300     0.36400
N2635       N  0.83061741  0.59776978  0.13568653    -0.38400
N2636       N  0.77455430  0.65766427  0.17569336    -0.38400
N2637       N  0.78877384  0.60357748  0.11937907    -0.37900
N2638       N  0.81729551  0.65511139  0.18906142    -0.37900
C2639       C  0.88859133  0.90735989  0.37132854    -0.04500
C2640       C  0.88654424  0.91711322  0.38390466    -0.01700
C2641       C  0.89517883  0.93052735  0.38517532     0.03300
C2642       C  0.90601660  0.93423414  0.37391427    -0.04500
C2643       C  0.90814988  0.92438376  0.36139380    -0.01700
C2644       C  0.89945230  0.91100446  0.36010831     0.03300
C2645       C  0.87580664  0.91313972  0.39577372     0.38000
C2646       C  0.91879395  0.92833093  0.34943184     0.38000
C2647       C  0.90122625  0.90133178  0.34687570     0.36400
C2648       C  0.89312780  0.94030834  0.39829501     0.36400
N2649       N  0.90261937  0.89366450  0.33628327    -0.38400
N2650       N  0.89145492  0.94810863  0.40875116    -0.38400
N2651       N  0.92727197  0.93149578  0.33988892    -0.37900
N2652       N  0.86728013  0.90993809  0.40525955    -0.37900
C2653       C  0.87209478  0.78223969  0.36557617    -0.04500
C2654       C  0.86469885  0.77094239  0.37431245    -0.01700
C2655       C  0.86975131  0.75569465  0.37385906     0.03300
C2656       C  0.88204084  0.75149323  0.36438809    -0.04500
C2657       C  0.88976589  0.76286820  0.35609259    -0.01700
C2658       C  0.88488475  0.77814714  0.35673146     0.03300
C2659       C  0.85190385  0.77497906  0.38390427     0.38000
C2660       C  0.90294832  0.75889950  0.34701325     0.38000
C2661       C  0.89272723  0.78950401  0.34772482     0.36400
C2662       C  0.86194103  0.74428569  0.38282864     0.36400
N2663       N  0.89903945  0.79853545  0.34055382    -0.38400
N2664       N  0.85573937  0.73523792  0.39007676    -0.38400
N2665       N  0.91346464  0.75573944  0.33977717    -0.37900
N2666       N  0.84165388  0.77815360  0.39151055    -0.37900
C2667       C  0.61935497  0.86972551  0.35837612    -0.04500
C2668       C  0.61699994  0.85907121  0.37017757    -0.01700
C2669       C  0.60320185  0.85899632  0.37833832     0.03300
C2670       C  0.59169451  0.86967473  0.37488961    -0.04500
C2671       C  0.59425785  0.88064155  0.36344694    -0.01700
C2672       C  0.60805807  0.88073144  0.35531574     0.03300
C2673       C  0.62848583  0.84775867  0.37362402     0.38000
C2674       C  0.58283027  0.89208259  0.36020323     0.38000
C2675       C  0.61082553  0.89253548  0.34413380     0.36400
C2676       C  0.60059064  0.84737418  0.38975751     0.36400
N2677       N  0.61305321  0.90200077  0.33527914    -0.38400
N2678       N  0.59848310  0.83810717  0.39885149    -0.38400
N2679       N  0.57371756  0.90119083  0.35756935    -0.37900
N2680       N  0.63759861  0.83872903  0.37651423    -0.37900
C2681       C  0.74418232  0.86282436  0.34197660    -0.04500
C2682       C  0.75496198  0.87317669  0.33617828    -0.01700
C2683       C  0.77037849  0.87204077  0.34044388     0.03300
C2684       C  0.77515063  0.86053139  0.35064704    -0.04500
C2685       C  0.76411731  0.85089381  0.35726997    -0.01700
C2686       C  0.74873349  0.85199680  0.35291070     0.03300
C2687       C  0.75012178  0.88520230  0.32597696     0.38000
C2688       C  0.76849785  0.83998242  0.36883557     0.38000
C2689       C  0.73769432  0.84158945  0.35932760     0.36400
C2690       C  0.78130934  0.88244147  0.33383528     0.36400
N2691       N  0.72890686  0.83329075  0.36448342    -0.38400
N2692       N  0.78994643  0.89083420  0.32857223    -0.38400
N2693       N  0.77197465  0.83129611  0.37808083    -0.37900
N2694       N  0.74623984  0.89484642  0.31791956    -0.37900
C2695       C  0.66781456  0.87096554  0.06297737    -0.04500
C2696       C  0.67709255  0.87502686  0.07544988    -0.01700
C2697       C  0.67658350  0.86651219  0.08903928     0.03300
C2698       C  0.66707734  0.85365657  0.09015330    -0.04500
C2699       C  0.65761663  0.84974458  0.07780869    -0.01700
C2700       C  0.65790743  0.85839534  0.06432453     0.03300
C2701       C  0.68779819  0.88746908  0.07408533     0.38000
C2702       C  0.64723067  0.83701708  0.07910732     0.38000
C2703       C  0.64767776  0.85450399  0.05200394     0.36400
C2704       C  0.68631149  0.87067425  0.10166226     0.36400
N2705       N  0.63951367  0.85133896  0.04220742    -0.38400
N2706       N  0.69405403  0.87405828  0.11172280    -0.38400
N2707       N  0.63894209  0.82687921  0.08013905    -0.37900
N2708       N  0.69637935  0.89735342  0.07298302    -0.37900
C2709       C  0.66169566  0.83603795  0.21493055    -0.04500
C2710       C  0.65237259  0.83027624  0.22668866    -0.01700
C2711       C  0.65449616  0.83505734  0.24188037     0.03300
C2712       C  0.66575812  0.84593439  0.24546745    -0.04500
C2713       C  0.67472252  0.85207503  0.23362765    -0.01700
C2714       C  0.67283858  0.84703869  0.21850235     0.03300
C2715       C  0.64036391  0.81958013  0.22315134     0.38000
C2716       C  0.68576692  0.86383688  0.23691673     0.38000
C2717       C  0.68289746  0.85276759  0.20676377     0.36400
C2718       C  0.64547647  0.82823063  0.25387545     0.36400
N2719       N  0.69095718  0.85733434  0.19742995    -0.38400
N2720       N  0.63830206  0.82273754  0.26343166    -0.38400
N2721       N  0.69456230  0.87323658  0.23951099    -0.37900
N2722       N  0.63074512  0.81108855  0.22035593    -0.37900
C2723       C  0.68288221  0.73995364  0.13896402    -0.04500
C2724       C  0.67784613  0.73110351  0.12651502    -0.01700
C2725       C  0.68312005  0.71605463  0.12459304     0.03300
C2726       C  0.69327453  0.70961280  0.13522079    -0.04500
C2727       C  0.69789459  0.71825650  0.14791926    -0.01700
C2728       C  0.69299320  0.73341888  0.14962610     0.03300
C2729       C  0.66687059  0.73727343  0.11587652     0.38000
C2730       C  0.70719546  0.71134534  0.15965289     0.38000
C2731       C  0.69886110  0.74238467  0.16214178     0.36400
C2732       C  0.67824913  0.70728913  0.11151722     0.36400
N2733       N  0.70359321  0.74949335  0.17212999    -0.38400
N2734       N  0.67433459  0.70031815  0.10108524    -0.38400
N2735       N  0.71448473  0.70578431  0.16907706    -0.37900
N2736       N  0.65808755  0.74215356  0.10739725    -0.37900
C2737       C  0.15714913  0.63755824  0.59462720    -0.04500
C2738       C  0.16796766  0.63952842  0.58289845    -0.01700
C2739       C  0.16757431  0.63024699  0.56986133     0.03300
C2740       C  0.15631356  0.61893752  0.56831727    -0.04500
C2741       C  0.14596978  0.61643310  0.58035388    -0.01700
C2742       C  0.14643375  0.62565807  0.59349772     0.03300
C2743       C  0.17979016  0.65091553  0.58431811     0.38000
C2744       C  0.13432423  0.60488899  0.57893139     0.38000
C2745       C  0.13541194  0.62329277  0.60552817     0.36400
C2746       C  0.17903482  0.63216977  0.55815034     0.36400
N2747       N  0.12664137  0.62135477  0.61513600    -0.38400
N2748       N  0.18819849  0.63371204  0.54884472    -0.38400
N2749       N  0.12499758  0.59570964  0.57783047    -0.37900
N2750       N  0.18920358  0.66000876  0.58540283    -0.37900
C2751       C  0.44079043  0.85868705  0.64027296    -0.04500
C2752       C  0.44337354  0.84522236  0.63191715    -0.01700
C2753       C  0.45675359  0.84356664  0.62325977     0.03300
C2754       C  0.46749121  0.85543392  0.62276308    -0.04500
C2755       C  0.46464289  0.86910651  0.63064763    -0.01700
C2756       C  0.45137606  0.87069707  0.63944896     0.03300
C2757       C  0.43260178  0.83279841  0.63272414     0.38000
C2758       C  0.47521403  0.88168553  0.62943367     0.38000
C2759       C  0.44848179  0.88484270  0.64741247     0.36400
C2760       C  0.45981305  0.82937424  0.61544773     0.36400
N2761       N  0.44618762  0.89613885  0.65373955    -0.38400
N2762       N  0.46230324  0.81803389  0.60927513    -0.38400
N2763       N  0.48362989  0.89171823  0.62840474    -0.37900
N2764       N  0.42400744  0.82288563  0.63334012    -0.37900
C2765       C  0.17208984  0.90724042  0.63824746    -0.04500
C2766       C  0.17149240  0.91689765  0.65104347    -0.01700
C2767       C  0.16243771  0.93008440  0.65073624     0.03300
C2768       C  0.15358165  0.93347246  0.63779789    -0.04500
C2769       C  0.15358148  0.92343304  0.62528993    -0.01700
C2770       C  0.16293667  0.91042996  0.62544061     0.03300
C2771       C  0.17976844  0.91299710  0.66476017     0.38000
C2772       C  0.14446092  0.92680119  0.61197630     0.38000
C2773       C  0.16361518  0.90073392  0.61211955     0.36400
C2774       C  0.16203952  0.94003488  0.66388147     0.36400
N2775       N  0.16415995  0.89303040  0.60147570    -0.38400
N2776       N  0.16175463  0.94798985  0.67434711    -0.38400
N2777       N  0.13717328  0.92945822  0.60136209    -0.37900
N2778       N  0.18627009  0.90983401  0.67574128    -0.37900
C2779       C  0.28608648  0.85679492  0.65260347    -0.04500
C2780       C  0.29597878  0.86680573  0.64490270    -0.01700
C2781       C  0.31128429  0.86806577  0.64945174     0.03300
C2782       C  0.31678030  0.85937800  0.66180070    -0.04500
C2783       C  0.30688011  0.84928306  0.66942190    -0.01700
C2784       C  0.29159915  0.84805194  0.66488532     0.03300
C2785       C  0.29048890  0.87564175  0.63210696     0.38000
C2786       C  0.31245313  0.83982375  0.68173724     0.38000
C2787       C  0.28143096  0.83812610  0.67324654     0.36400
C2788       C  0.32123218  0.87864236  0.64165818     0.36400
N2789       N  0.27333222  0.83022860  0.67994041    -0.38400
N2790       N  0.32915224  0.88707202  0.63541464    -0.38400
N2791       N  0.31686849  0.83228345  0.69156853    -0.37900
N2792       N  0.28611711  0.88270149  0.62190700    -0.37900
C2793       C  0.18726755  0.78413851  0.63074202    -0.04500
C2794       C  0.19324117  0.77244233  0.62149583    -0.01700
C2795       C  0.18826560  0.75732307  0.62336452     0.03300
C2796       C  0.17675449  0.75388404  0.63403318    -0.04500
C2797       C  0.16990542  0.76579086  0.64235954    -0.01700
C2798       C  0.17532075  0.78078917  0.64096440     0.03300
C2799       C  0.20433892  0.77600366  0.60982794     0.38000
C2800       C  0.15713573  0.76265219  0.65231726     0.38000
C2801       C  0.16900181  0.79254807  0.65065038     0.36400
C2802       C  0.19563116  0.74526924  0.61486521     0.36400
N2803       N  0.16391347  0.80185828  0.65842630    -0.38400
N2804       N  0.20160455  0.73568884  0.60811577    -0.38400
N2805       N  0.14692112  0.76015443  0.66020947    -0.37900
N2806       N  0.21308348  0.77887679  0.60043497    -0.37900
C2807       C  0.42595514  0.87584435  0.93595681    -0.04500
C2808       C  0.43649985  0.86432832  0.93219664    -0.01700
C2809       C  0.43466277  0.85570329  0.91879170     0.03300
C2810       C  0.42209006  0.85829976  0.90915731    -0.04500
C2811       C  0.41173906  0.87006085  0.91272853    -0.01700
C2812       C  0.41375633  0.87889864  0.92597516     0.03300
C2813       C  0.44942694  0.86150393  0.94201033     0.38000
C2814       C  0.39850564  0.87255529  0.90323902     0.38000
C2815       C  0.40282240  0.89067299  0.92966578     0.36400
C2816       C  0.44595711  0.84439672  0.91472621     0.36400
N2817       N  0.39410775  0.90008098  0.93258458    -0.38400
N2818       N  0.45500013  0.83542841  0.91144261    -0.38400
N2819       N  0.38790389  0.87449918  0.89572310    -0.37900
N2820       N  0.45973924  0.85924226  0.94983464    -0.37900
C2821       C  0.40331168  0.84329694  0.78527343    -0.04500
C2822       C  0.39290917  0.83542606  0.77586225    -0.01700
C2823       C  0.38983631  0.84065817  0.76103450     0.03300
C2824       C  0.39680860  0.85402241  0.75555433    -0.04500
C2825       C  0.40683310  0.86214652  0.76504537    -0.01700
C2826       C  0.41011941  0.85680469  0.77981315     0.03300
C2827       C  0.38492838  0.82213988  0.78148009     0.38000
C2828       C  0.41359838  0.87619211  0.75969624     0.38000
C2829       C  0.42085464  0.86507512  0.78916041     0.36400
C2830       C  0.37988122  0.83190209  0.75124447     0.36400
N2831       N  0.42938024  0.87175292  0.79659162    -0.38400
N2832       N  0.37196003  0.82489120  0.74345759    -0.38400
N2833       N  0.41896015  0.88741024  0.75543782    -0.37900
N2834       N  0.37852643  0.81153475  0.78587309    -0.37900
C2835       C  0.40867643  0.56539608  0.87272824    -0.04500
C2836       C  0.39819799  0.56813407  0.86088891    -0.01700
C2837       C  0.38998911  0.58189748  0.86037853     0.03300
C2838       C  0.39223649  0.59311286  0.87166204    -0.04500
C2839       C  0.40302342  0.59054694  0.88326531    -0.01700
C2840       C  0.41114472  0.57670992  0.88384280     0.03300
C2841       C  0.39615816  0.55696661  0.84893462     0.38000
C2842       C  0.40534487  0.60187197  0.89500347     0.38000
C2843       C  0.42153789  0.57384366  0.89630269     0.36400
C2844       C  0.37951215  0.58465101  0.84795163     0.36400
N2845       N  0.42978491  0.57151095  0.90626801    -0.38400
N2846       N  0.37116000  0.58682760  0.83803776    -0.38400
N2847       N  0.40721908  0.61089315  0.90437781    -0.37900
N2848       N  0.39455451  0.54808189  0.83937981    -0.37900
C2849       C  0.38022717  0.71786956  0.85924241    -0.04500
C2850       C  0.39385926  0.72005420  0.85103516    -0.01700
C2851       C  0.40070905  0.73451511  0.85045384     0.03300
C2852       C  0.39396290  0.74699537  0.85798877    -0.04500
C2853       C  0.38019966  0.74487954  0.86600486    -0.01700
C2854       C  0.37331263  0.73041743  0.86654264     0.03300
C2855       C  0.40056842  0.70755630  0.84261279     0.38000
C2856       C  0.37281583  0.75765955  0.87337268     0.38000
C2857       C  0.35915519  0.72851646  0.87477086     0.36400
C2858       C  0.41491972  0.73642575  0.84231960     0.36400
N2859       N  0.34780063  0.72711578  0.88124769    -0.38400
N2860       N  0.42624665  0.73789776  0.83581301    -0.38400
N2861       N  0.36693337  0.76782652  0.87929363    -0.37900
N2862       N  0.40587991  0.69759756  0.83585869    -0.37900
C2863       C  0.12487972  0.62813403  0.86052078    -0.04500
C2864       C  0.11239636  0.63786340  0.85776671    -0.01700
C2865       C  0.09884331  0.63622631  0.86614471     0.03300
C2866       C  0.09759160  0.62485267  0.87742961    -0.04500
C2867       C  0.11028281  0.61551892  0.88062937    -0.01700
C2868       C  0.12387840  0.61718058  0.87224045     0.03300
C2869       C  0.11366507  0.65004242  0.84671001     0.38000
C2870       C  0.10922736  0.60380611  0.89219145     0.38000
C2871       C  0.13665784  0.60726889  0.87541483     0.36400
C2872       C  0.08638795  0.64670431  0.86348533     0.36400
N2873       N  0.14683407  0.59936720  0.87804216    -0.38400
N2874       N  0.07649197  0.65509571  0.86135022    -0.38400
N2875       N  0.10839351  0.59448506  0.90143561    -0.37900
N2876       N  0.11469430  0.65978346  0.83793312    -0.37900
C2877       C  0.24940349  0.64096824  0.84533265    -0.04500
C2878       C  0.25397373  0.65223893  0.85577846    -0.01700
C2879       C  0.26929421  0.65322220  0.86031414     0.03300
C2880       C  0.28018052  0.64301653  0.85435622    -0.04500
C2881       C  0.27542756  0.63121288  0.84455960    -0.01700
C2882       C  0.26011526  0.63025447  0.84001294     0.03300
C2883       C  0.24308565  0.66330866  0.86132521     0.38000
C2884       C  0.28631782  0.62031605  0.83867061     0.38000
C2885       C  0.25538911  0.61818017  0.82983706     0.36400
C2886       C  0.27379948  0.66461271  0.87133701     0.36400
N2887       N  0.25164913  0.60856332  0.82170077    -0.38400
N2888       N  0.27738663  0.67365404  0.88017335    -0.38400
N2889       N  0.29494478  0.61154177  0.83402115    -0.37900
N2890       N  0.23442839  0.67217416  0.86573439    -0.37900
C2891       C  0.17233916  0.65328088  0.74821010    -0.04500
C2892       C  0.16146748  0.66460479  0.74474860    -0.01700
C2893       C  0.15908405  0.66914627  0.72955097     0.03300
C2894       C  0.16763444  0.66251919  0.71767854    -0.04500
C2895       C  0.17860833  0.65132236  0.72113958    -0.01700
C2896       C  0.18090508  0.64667908  0.73631610     0.03300
C2897       C  0.15305079  0.67201408  0.75684679     0.38000
C2898       C  0.18793528  0.64489553  0.70914469     0.38000
C2899       C  0.19188644  0.63482449  0.73959171     0.36400
C2900       C  0.14755941  0.68043530  0.72612469     0.36400
N2901       N  0.20065696  0.62536641  0.74215157    -0.38400
N2902       N  0.13835808  0.68942628  0.72339881    -0.38400
N2903       N  0.19538474  0.63979442  0.69957661    -0.37900
N2904       N  0.14633727  0.67796067  0.76647180    -0.37900
C2905       C  0.62121849  0.12054958  0.64653490    -0.04500
C2906       C  0.60889637  0.11095358  0.65014435    -0.01700
C2907       C  0.59573368  0.11095824  0.64104336     0.03300
C2908       C  0.59475997  0.12048611  0.62814138    -0.04500
C2909       C  0.60754568  0.12918942  0.62382320    -0.01700
C2910       C  0.62072368  0.12923794  0.63299039     0.03300
C2911       C  0.60991861  0.10068239  0.66301067     0.38000
C2912       C  0.60696305  0.13866437  0.61033417     0.38000
C2913       C  0.63347513  0.13876152  0.62873967     0.36400
C2914       C  0.58329876  0.10083730  0.64481389     0.36400
N2915       N  0.64363311  0.14633116  0.62525213    -0.38400
N2916       N  0.57339739  0.09274870  0.64782674    -0.38400
N2917       N  0.60656519  0.14620386  0.59955999    -0.37900
N2918       N  0.61078030  0.09244768  0.67323093    -0.37900
C2919       C  0.67762435  0.41198295  0.87485369    -0.04500
C2920       C  0.66629648  0.41343579  0.88617972    -0.01700
C2921       C  0.65693767  0.42647309  0.88666811     0.03300
C2922       C  0.65905233  0.43834929  0.87609151    -0.04500
C2923       C  0.67038281  0.43694842  0.86480069    -0.01700
C2924       C  0.67951054  0.42378108  0.86407541     0.03300
C2925       C  0.66468319  0.40185419  0.89780224     0.38000
C2926       C  0.67239895  0.44889455  0.85360298     0.38000
C2927       C  0.69047277  0.42222456  0.85184570     0.36400
C2928       C  0.64546529  0.42789930  0.89842372     0.36400
N2929       N  0.69919454  0.42101558  0.84207220    -0.38400
N2930       N  0.63629876  0.42904447  0.90778562    -0.38400
N2931       N  0.67404035  0.45841037  0.84467307    -0.37900
N2932       N  0.66342100  0.39266892  0.90713166    -0.37900
C2933       C  0.66182551  0.14339282  0.91703179    -0.04500
C2934       C  0.67276974  0.14507189  0.92867449    -0.01700
C2935       C  0.67238638  0.13560418  0.94162528     0.03300
C2936       C  0.66125662  0.12413233  0.94297802    -0.04500
C2937       C  0.65045182  0.12227395  0.93127416    -0.01700
C2938       C  0.65061716  0.13196677  0.91845457     0.03300
C2939       C  0.68490734  0.15608710  0.92709117     0.38000
C2940       C  0.63884883  0.11066721  0.93261909     0.38000
C2941       C  0.63885827  0.13050941  0.90701694     0.36400
C2942       C  0.68384500  0.13734921  0.95334021     0.36400
N2943       N  0.62942927  0.12935392  0.89794078    -0.38400
N2944       N  0.69296802  0.13873740  0.96269238    -0.38400
N2945       N  0.62961981  0.10138152  0.93368067    -0.37900
N2946       N  0.69464065  0.16481769  0.92584704    -0.37900
C2947       C  0.68275037  0.25580127  0.86448937    -0.04500
C2948       C  0.69491260  0.26043864  0.87384624    -0.01700
C2949       C  0.69937851  0.27580958  0.87418018     0.03300
C2950       C  0.69160386  0.28672395  0.86531472    -0.04500
C2951       C  0.67902568  0.28220717  0.85646972    -0.01700
C2952       C  0.67476836  0.26676443  0.85586722     0.03300
C2953       C  0.70332546  0.24930853  0.88263744     0.38000
C2954       C  0.67073276  0.29334953  0.84758798     0.38000
C2955       C  0.66214844  0.26217303  0.84633743     0.36400
C2956       C  0.71193329  0.28040087  0.88380621     0.36400
N2957       N  0.65213457  0.25851033  0.83866886    -0.38400
N2958       N  0.72195773  0.28405015  0.89146726    -0.38400
N2959       N  0.66405161  0.30223659  0.84056340    -0.37900
N2960       N  0.71004365  0.24044659  0.88965771    -0.37900
C2961       C  0.66834622  0.15622352  0.79157039    -0.04500
C2962       C  0.66064254  0.16408062  0.77980879    -0.01700
C2963       C  0.66106088  0.15858932  0.76473667     0.03300
C2964       C  0.66906345  0.14512763  0.76124671    -0.04500
C2965       C  0.67652648  0.13711879  0.77299730    -0.01700
C2966       C  0.67612872  0.14258532  0.78807791     0.03300
C2967       C  0.65207732  0.17777549  0.78314289     0.38000
C2968       C  0.68470211  0.12320411  0.76958336     0.38000
C2969       C  0.68431298  0.13441209  0.79982798     0.36400
C2970       C  0.65389163  0.16727415  0.75268538     0.36400
N2971       N  0.69082533  0.12782416  0.80916316    -0.38400
N2972       N  0.64823710  0.17423318  0.74306414    -0.38400
N2973       N  0.69128596  0.11214520  0.76687536    -0.37900
N2974       N  0.64526385  0.18873013  0.78570905    -0.37900
C2975       C  0.94381831  0.36391930  0.85823643    -0.04500
C2976       C  0.95505466  0.35261847  0.85627159    -0.01700
C2977       C  0.96808255  0.35247438  0.86557650     0.03300
C2978       C  0.97008342  0.36367053  0.87693737    -0.04500
C2979       C  0.95842377  0.37446094  0.87946652    -0.01700
C2980       C  0.94540521  0.37463594  0.87009755     0.03300
C2981       C  0.95308365  0.34083868  0.84490520     0.38000
C2982       C  0.95997832  0.38581455  0.89130765     0.38000
C2983       C  0.93401379  0.38637574  0.87222010     0.36400
C2984       C  0.97921476  0.34044475  0.86370817     0.36400
N2985       N  0.92494080  0.39574946  0.87389481    -0.38400
N2986       N  0.98807901  0.33084447  0.86221301    -0.38400
N2987       N  0.96107429  0.39486294  0.90078225    -0.37900
N2988       N  0.95155530  0.33142572  0.83585761    -0.37900
C2989       C  0.81982347  0.36371901  0.84051305    -0.04500
C2990       C  0.80866088  0.37336190  0.83419056    -0.01700
C2991       C  0.79339579  0.37213798  0.83882998     0.03300
C2992       C  0.78917523  0.36134093  0.84994527    -0.04500
C2993       C  0.80040767  0.35192573  0.85652619    -0.01700
C2994       C  0.81568859  0.35316305  0.85188231     0.03300
C2995       C  0.81289380  0.38470834  0.82299135     0.38000
C2996       C  0.79629017  0.34093942  0.86811579     0.38000
C2997       C  0.82703247  0.34313618  0.85841687     0.36400
C2998       C  0.78193942  0.38149103  0.83154269     0.36400
N2999       N  0.83608737  0.33516006  0.86364245    -0.38400
N3000       N  0.77280631  0.38891474  0.82568196    -0.38400
N3001       N  0.79305025  0.33211649  0.87731553    -0.37900
N3002       N  0.81625689  0.39376999  0.81407360    -0.37900
C3003       C  0.90867153  0.35260685  0.58937435    -0.04500
C3004       C  0.91882420  0.34905481  0.57745952    -0.01700
C3005       C  0.91985549  0.35856937  0.56458314     0.03300
C3006       C  0.91017363  0.37133577  0.56308071    -0.04500
C3007       C  0.90006856  0.37493337  0.57508935    -0.01700
C3008       C  0.89957602  0.36580699  0.58829446     0.03300
C3009       C  0.92851975  0.33575828  0.57856971     0.38000
C3010       C  0.88957642  0.38757177  0.57366655     0.38000
C3011       C  0.88924752  0.36975667  0.60054016     0.36400
C3012       C  0.93136740  0.35549226  0.55317923     0.36400
N3013       N  0.88108614  0.37297779  0.61034259    -0.38400
N3014       N  0.94062431  0.35307382  0.54415266    -0.38400
N3015       N  0.88113169  0.39759956  0.57261046    -0.37900
N3016       N  0.93620919  0.32512118  0.57940045    -0.37900
C3017       C  0.89846812  0.33788514  0.71340615    -0.04500
C3018       C  0.88886447  0.35024129  0.71694771    -0.01700
C3019       C  0.88768809  0.35544507  0.73206838     0.03300
C3020       C  0.89633265  0.34851644  0.74371497    -0.04500
C3021       C  0.90636577  0.33651188  0.74002978    -0.01700
C3022       C  0.90736205  0.33118355  0.72495206     0.03300
C3023       C  0.87980285  0.35731939  0.70513117     0.38000
C3024       C  0.91524803  0.32915529  0.75180969     0.38000
C3025       C  0.91771327  0.31887400  0.72128365     0.36400
C3026       C  0.87762715  0.36803230  0.73558688     0.36400
N3027       N  0.92596664  0.30906435  0.71834638    -0.38400
N3028       N  0.86955723  0.37803377  0.73838792    -0.38400
N3029       N  0.92237779  0.32328165  0.76116788    -0.37900
N3030       N  0.87260652  0.36300925  0.69571080    -0.37900
C3031       C  0.88660340  0.08633885  0.62770182    -0.04500
C3032       C  0.88381115  0.07406099  0.63769694    -0.01700
C3033       C  0.89263231  0.06071602  0.63681428     0.03300
C3034       C  0.90462127  0.05958762  0.62618140    -0.04500
C3035       C  0.90803742  0.07218432  0.61682004    -0.01700
C3036       C  0.89909676  0.08551047  0.61758398     0.03300
C3037       C  0.87237032  0.07539886  0.64950966     0.38000
C3038       C  0.92038891  0.07126672  0.60593190     0.38000
C3039       C  0.90266235  0.09819681  0.60767688     0.36400
C3040       C  0.88959348  0.04830396  0.64724573     0.36400
N3041       N  0.90566725  0.10833081  0.59985080    -0.38400
N3042       N  0.88712341  0.03841580  0.65555639    -0.38400
N3043       N  0.93023447  0.07058525  0.59723823    -0.37900
N3044       N  0.86333587  0.07648474  0.65900786    -0.37900
C3045       C  0.86928412  0.21034197  0.63497436    -0.04500
C3046       C  0.86248959  0.22205877  0.62634810    -0.01700
C3047       C  0.86764288  0.23713936  0.62774934     0.03300
C3048       C  0.87955328  0.24066853  0.63790269    -0.04500
C3049       C  0.88646847  0.22891485  0.64640359    -0.01700
C3050       C  0.88146303  0.21378927  0.64482648     0.03300
C3051       C  0.85029543  0.21860131  0.61581821     0.38000
C3052       C  0.89885399  0.23230899  0.65671994     0.38000
C3053       C  0.88858462  0.20187571  0.65374172     0.36400
C3054       C  0.86022531  0.24908488  0.61913015     0.36400
N3055       N  0.89432241  0.19237651  0.66080207    -0.38400
N3056       N  0.85429949  0.25857941  0.61222295    -0.38400
N3057       N  0.90868299  0.23496740  0.66501878    -0.37900
N3058       N  0.84055004  0.21587103  0.60744428    -0.37900
C3059       C  0.77330708  0.13334477  0.65110885    -0.04500
C3060       C  0.76132257  0.14252258  0.64556298    -0.01700
C3061       C  0.74660477  0.14114644  0.65171781     0.03300
C3062       C  0.74370846  0.13048230  0.66334576    -0.04500
C3063       C  0.75554434  0.12107555  0.66866006    -0.01700
C3064       C  0.77030026  0.12253161  0.66263290     0.03300
C3065       C  0.76399633  0.15320705  0.63328509     0.38000
C3066       C  0.75247077  0.10965410  0.68016263     0.38000
C3067       C  0.78243790  0.11322452  0.66876808     0.36400
C3068       C  0.73455019  0.15107675  0.64640795     0.36400
N3069       N  0.79206023  0.10574795  0.67370517    -0.38400
N3070       N  0.72493385  0.15900012  0.64220536    -0.38400
N3071       N  0.74997369  0.10053805  0.68930773    -0.37900
N3072       N  0.76605577  0.16173672  0.62348613    -0.37900
C3073       C  0.89625829  0.64244451  0.59124442    -0.04500
C3074       C  0.90707661  0.63083757  0.58868778    -0.01700
C3075       C  0.90593422  0.62138733  0.57575660     0.03300
C3076       C  0.89411340  0.62361623  0.56513181    -0.04500
C3077       C  0.88329048  0.63519239  0.56769996    -0.01700
C3078       C  0.88430508  0.64450878  0.58070423     0.03300
C3079       C  0.91989504  0.62914118  0.59889756     0.38000
C3080       C  0.87084439  0.63733152  0.55711260     0.38000
C3081       C  0.87278756  0.65601928  0.58334277     0.36400
C3082       C  0.91734884  0.60980503  0.57306177     0.36400
N3083       N  0.86362535  0.66522672  0.58540947    -0.38400
N3084       N  0.92648063  0.60058303  0.57093565    -0.38400
N3085       N  0.86091147  0.63906207  0.54868585    -0.37900
N3086       N  0.93016319  0.62786933  0.60699820    -0.37900
C3087       C  0.88442843  0.90931074  0.62860496    -0.04500
C3088       C  0.88381622  0.91883258  0.61569430    -0.01700
C3089       C  0.89311153  0.93183163  0.61481066     0.03300
C3090       C  0.90330909  0.93528536  0.62671040    -0.04500
C3091       C  0.90431434  0.92544566  0.63937940    -0.01700
C3092       C  0.89474977  0.91263012  0.64042026     0.03300
C3093       C  0.87392324  0.91502452  0.60307802     0.38000
C3094       C  0.91480735  0.92875128  0.65163469     0.38000
C3095       C  0.89499719  0.90330640  0.65402467     0.36400
C3096       C  0.89246357  0.94141439  0.60140173     0.36400
N3097       N  0.89511419  0.89593990  0.66492291    -0.38400
N3098       N  0.89192732  0.94903303  0.59069211    -0.38400
N3099       N  0.92322350  0.93131530  0.66139232    -0.37900
N3100       N  0.86606863  0.91194224  0.59300646    -0.37900
C3101       C  0.86741274  0.78531364  0.63397760    -0.04500
C3102       C  0.88023480  0.78031733  0.62568988    -0.01700
C3103       C  0.88599412  0.76549924  0.62786216     0.03300
C3104       C  0.87895314  0.75552754  0.63831800    -0.04500
C3105       C  0.86596476  0.76045994  0.64638982    -0.01700
C3106       C  0.86039064  0.77534335  0.64442900     0.03300
C3107       C  0.88736356  0.79030631  0.61467288     0.38000
C3108       C  0.85787225  0.75004785  0.65628899     0.38000
C3109       C  0.84773881  0.78052654  0.65365989     0.36400
C3110       C  0.89934100  0.76065699  0.61947708     0.36400
N3111       N  0.83769288  0.78465379  0.66107835    -0.38400
N3112       N  0.90996034  0.75683343  0.61272577    -0.38400
N3113       N  0.85135020  0.74174491  0.66412335    -0.37900
N3114       N  0.89306372  0.79827920  0.60590478    -0.37900
C3115       C  0.67506577  0.58876625  0.87145217    -0.04500
C3116       C  0.67680164  0.57695122  0.86070732    -0.01700
C3117       C  0.66787166  0.56372147  0.86177045     0.03300
C3118       C  0.65713579  0.56216222  0.87358837    -0.04500
C3119       C  0.65501275  0.57415108  0.88403503    -0.01700
C3120       C  0.66392765  0.58743490  0.88296177     0.03300
C3121       C  0.68751879  0.57854345  0.84826921     0.38000
C3122       C  0.64409950  0.57253951  0.89629132     0.38000
C3123       C  0.66204188  0.59942483  0.89411098     0.36400
C3124       C  0.66947865  0.55185958  0.85042967     0.36400
N3125       N  0.66049321  0.60895212  0.90304155    -0.38400
N3126       N  0.67074566  0.54244081  0.84134270    -0.38400
N3127       N  0.63541085  0.57118813  0.90607221    -0.37900
N3128       N  0.69607259  0.57983575  0.83836224    -0.37900
C3129       C  0.94571909  0.62457198  0.85822340    -0.04500
C3130       C  0.94878736  0.63544902  0.86960259    -0.01700
C3131       C  0.96232283  0.63458135  0.87812898     0.03300
C3132       C  0.97288397  0.62277230  0.87540990    -0.04500
C3133       C  0.96975033  0.61183755  0.86406380    -0.01700
C3134       C  0.95618699  0.61268761  0.85558393     0.03300
C3135       C  0.93830724  0.64792251  0.87215645     0.38000
C3136       C  0.98030109  0.59947175  0.86128153     0.38000
C3137       C  0.95276503  0.60099993  0.84447122     0.36400
C3138       C  0.96569659  0.64633465  0.88917223     0.36400
N3139       N  0.94998972  0.59164873  0.83566211    -0.38400
N3140       N  0.96839193  0.65574826  0.89793794    -0.38400
N3141       N  0.98870373  0.58961724  0.85898351    -0.37900
N3142       N  0.92994863  0.65786948  0.87419688    -0.37900
C3143       C  0.89733278  0.64849858  0.74615383    -0.04500
C3144       C  0.88885800  0.64184173  0.73426868    -0.01700
C3145       C  0.89033308  0.64721256  0.71922480     0.03300
C3146       C  0.90011357  0.65952704  0.71589397    -0.04500
C3147       C  0.90875620  0.66605381  0.72776289    -0.01700
C3148       C  0.90748517  0.66048187  0.74277302     0.03300
C3149       C  0.87860343  0.62934013  0.73745435     0.38000
C3150       C  0.91909576  0.67848240  0.72458637     0.38000
C3151       C  0.91624397  0.66755819  0.75480371     0.36400
C3152       C  0.88124794  0.64033978  0.70732815     0.36400
N3153       N  0.92328483  0.67319556  0.76435834    -0.38400
N3154       N  0.87402041  0.63475407  0.69788589    -0.38400
N3155       N  0.92729817  0.68845319  0.72215384    -0.37900
N3156       N  0.87034281  0.61944206  0.73998042    -0.37900
C3157       C  0.82047348  0.63267026  0.84352221    -0.04500
C3158       C  0.80903209  0.62374852  0.83663120    -0.01700
C3159       C  0.79375280  0.62506382  0.84134787     0.03300
C3160       C  0.78974024  0.63508312  0.85326553    -0.04500
C3161       C  0.80129588  0.64330724  0.86076853    -0.01700
C3162       C  0.81653884  0.64224324  0.85584039     0.03300
C3163       C  0.81296886  0.61294720  0.82480150     0.38000
C3164       C  0.79755801  0.65270140  0.87380121     0.38000
C3165       C  0.82799986  0.65154678  0.86311995     0.36400
C3166       C  0.78213000  0.61650517  0.83342637     0.36400
N3167       N  0.83708021  0.65900625  0.86898205    -0.38400
N3168       N  0.77291228  0.60964613  0.82706584    -0.38400
N3169       N  0.79458726  0.66013694  0.88423645    -0.37900
N3170       N  0.81608285  0.60430754  0.81538591    -0.37900
C3171       C  0.61759019  0.86293173  0.64152076    -0.04500
C3172       C  0.61655630  0.85184198  0.62996743    -0.01700
C3173       C  0.60344554  0.85096012  0.62083812     0.03300
C3174       C  0.59131103  0.86122342  0.62316059    -0.04500
C3175       C  0.59261105  0.87267424  0.63434714    -0.01700
C3176       C  0.60572392  0.87353645  0.64346610     0.03300
C3177       C  0.62878274  0.84100159  0.62774549     0.38000
C3178       C  0.58064763  0.88387433  0.63621435     0.38000
C3179       C  0.60726670  0.88572935  0.65444922     0.36400
C3180       C  0.60223132  0.83904678  0.60950539     0.36400
N3181       N  0.60854833  0.89551946  0.66312599    -0.38400
N3182       N  0.60127056  0.82955283  0.60046215    -0.38400
N3183       N  0.57111709  0.89281378  0.63770509    -0.37900
N3184       N  0.63852600  0.83236173  0.62591160    -0.37900
C3185       C  0.74112552  0.86650941  0.65398321    -0.04500
C3186       C  0.75066218  0.85530277  0.66044119    -0.01700
C3187       C  0.76543535  0.85299566  0.65472324     0.03300
C3188       C  0.77056848  0.86130647  0.64195916    -0.04500
C3189       C  0.76078263  0.87201609  0.63506206    -0.01700
C3190       C  0.74619000  0.87472738  0.64113833     0.03300
C3191       C  0.74510613  0.84564927  0.67261421     0.38000
C3192       C  0.76560477  0.88006374  0.62149624     0.38000
C3193       C  0.73655438  0.88624057  0.63432434     0.36400
C3194       C  0.77552326  0.84251512  0.66249006     0.36400
N3195       N  0.72890219  0.89542561  0.62884408    -0.38400
N3196       N  0.78353577  0.83420592  0.66878989    -0.38400
N3197       N  0.76944845  0.88643925  0.61065164    -0.37900
N3198       N  0.74063196  0.83788031  0.68223786    -0.37900
C3199       C  0.66515991  0.85389835  0.91104060    -0.04500
C3200       C  0.67526372  0.86625534  0.91266388    -0.01700
C3201       C  0.67544105  0.87480620  0.92622487     0.03300
C3202       C  0.66553664  0.87107103  0.93830891    -0.04500
C3203       C  0.65522394  0.85891005  0.93657448    -0.01700
C3204       C  0.65507071  0.85033515  0.92303095     0.03300
C3205       C  0.68597453  0.86983467  0.90065047     0.38000
C3206       C  0.64432029  0.85555599  0.94848772     0.38000
C3207       C  0.64415939  0.83812097  0.92129149     0.36400
C3208       C  0.68624295  0.88712570  0.92790071     0.36400
N3209       N  0.63545394  0.82838449  0.91991427    -0.38400
N3210       N  0.69482795  0.89697553  0.92922819    -0.38400
N3211       N  0.63556898  0.85290319  0.95793989    -0.37900
N3212       N  0.69454421  0.87273180  0.89110528    -0.37900
C3213       C  0.68071277  0.74267282  0.85593241    -0.04500
C3214       C  0.67456746  0.73250756  0.86674140    -0.01700
C3215       C  0.68016492  0.71751977  0.86783965     0.03300
C3216       C  0.69157745  0.71236696  0.85775025    -0.04500
C3217       C  0.69723471  0.72234252  0.84650777    -0.01700
C3218       C  0.69219165  0.73753241  0.84590761     0.03300
C3219       C  0.66223526  0.73733189  0.87657540     0.38000
C3220       C  0.70786433  0.71687249  0.83513510     0.38000
C3221       C  0.69941988  0.74799659  0.83540769     0.36400
C3222       C  0.67445731  0.70760645  0.87971563     0.36400
N3223       N  0.70528170  0.75633219  0.82709649    -0.38400
N3224       N  0.66989580  0.69972952  0.88920885    -0.38400
N3225       N  0.71622583  0.71250971  0.82596423    -0.37900
N3226       N  0.65236709  0.74113506  0.88439552    -0.37900
C3227       C  0.67046297  0.84230736  0.78535351    -0.04500
C3228       C  0.65912024  0.85176539  0.77913687    -0.01700
C3229       C  0.66009710  0.85662271  0.76386924     0.03300
C3230       C  0.67243785  0.85202764  0.75459970    -0.04500
C3231       C  0.68403154  0.84287374  0.76102303    -0.01700
C3232       C  0.68306966  0.83813529  0.77633808     0.03300
C3233       C  0.64607745  0.85603154  0.78827733     0.38000
C3234       C  0.69664650  0.83763990  0.75178250     0.38000
C3235       C  0.69518402  0.82905670  0.78289258     0.36400
C3236       C  0.64837357  0.86649321  0.75780865     0.36400
N3237       N  0.70485161  0.82185614  0.78814471    -0.38400
N3238       N  0.63896220  0.87430853  0.75299027    -0.38400
N3239       N  0.70674695  0.83339468  0.74450284    -0.37900
N3240       N  0.63566520  0.85941083  0.79556418    -0.37900
loop_ 
_geom_bond_atom_site_label_1 
_geom_bond_atom_site_label_2 
_geom_bond_distance 
_geom_bond_site_symmetry_2 
_ccdc_geom_bond_type 
N1            N2   1.322       .  A
N1            C5   1.348       .  A
N1           Cu9   2.084       .  S
N2            C3   1.343       .  A
N2           Cu8   2.066       .  S
C3            C4   1.381       .  A
C3            H6   1.082       .  S
C4            C5   1.386       .  A
C4         C3227   1.487       .  S
C5            H7   1.082       .  S
Cu8          N11   2.065       .  S
Cu9          N19   2.084       .  S
Cu10         N12   2.070       .  S
Cu10         N18   2.071       .  S
N11          N12   1.321       .  A
N11          C15   1.343       .  A
N12          C13   1.345       .  A
C13          C14   1.386       .  A
C13          H16   1.082       .  S
C14          C15   1.384       .  A
C14        C3213   1.488       .  S
C15          H17   1.082       .  S
N18          N19   1.323       .  A
N18          C22   1.344       .  A
N19          C20   1.346       .  A
C20          C21   1.385       .  A
C20          H23   1.082       .  S
C21          C22   1.383       .  A
C21        C3199   1.488       .  S
C22          H24   1.082       .  S
N25          N26   1.321       .  A
N25          C29   1.344       .  A
N25         Cu33   2.061       .  S
N26          C27   1.344       .  A
N26         Cu32   2.076       .  S
C27          C28   1.386       .  A
C27          H30   1.082       .  S
C28          C29   1.383       .  A
C28        C3185   1.488       .  S
C29          H31   1.082       .  S
Cu32         N35   2.077       .  S
Cu33         N43   2.061       .  S
Cu34         N36   2.083       .  S
Cu34         N42   2.082       .  S
N35          N36   1.322       .  A
N35          C39   1.346       .  A
N36          C37   1.346       .  A
C37          C38   1.388       .  A
C37          H40   1.082       .  S
C38          C39   1.387       .  A
C38        C3230   1.496       .  S
C39          H41   1.082       .  S
N42          N43   1.323       .  A
N42          C46   1.346       .  A
N43          C44   1.342       .  A
C44          C45   1.379       .  A
C44          H47   1.083       .  S
C45          C46   1.385       .  A
C45        C3171   1.482       .  S
C46          H48   1.082       .  S
N49          N50   1.322       .  A
N49          C53   1.348       .  A
N49         Cu57   2.084       .  S
N50          C51   1.345       .  A
N50         Cu56   2.078       .  S
C51          C52   1.386       .  A
C51          H54   1.082       .  S
C52          C53   1.388       .  A
C52        C3157   1.496       .  S
C53          H55   1.082       .  S
Cu56         N59   2.078       .  S
Cu57         N67   2.083       .  S
Cu58         N60   2.066       .  S
Cu58         N66   2.066       .  S
N59          N60   1.321       .  A
N59          C63   1.345       .  A
N60          C61   1.345       .  A
C61          C62   1.385       .  A
C61          H64   1.082       .  S
C62          C63   1.386       .  A
C62        C3143   1.491       .  S
C63          H65   1.082       .  S
N66          N67   1.323       .  A
N66          C70   1.343       .  A
N67          C68   1.347       .  A
C68          C69   1.385       .  A
C68          H71   1.082       .  S
C69          C70   1.381       .  A
C69        C3129   1.486       .  S
C70          H72   1.082       .  S
N73          N74   1.322       .  A
N73          C77   1.344       .  A
N73         Cu81   2.070       .  S
N74          C75   1.344       .  A
N74         Cu80   2.078       .  S
C75          C76   1.385       .  A
C75          H78   1.082       .  S
C76          C77   1.384       .  A
C76        C3216   1.489       .  S
C77          H79   1.082       .  S
Cu80         N83   2.078       .  S
Cu81         N91   2.070       .  S
Cu82         N84   2.078       .  S
Cu82         N90   2.078       .  S
N83          N84   1.322       .  A
N83          C87   1.346       .  A
N84          C85   1.346       .  A
C85          C86   1.387       .  A
C85          H88   1.082       .  S
C86          C87   1.386       .  A
C86        C3160   1.494       .  S
C87          H89   1.082       .  S
N90          N91   1.322       .  A
N90          C94   1.344       .  A
N91          C92   1.346       .  A
C92          C93   1.384       .  A
C92          H95   1.082       .  S
C93          C94   1.384       .  A
C93        C3115   1.487       .  S
C94          H96   1.082       .  S
N97          N98   1.322       .  A
N97         C101   1.345       .  A
N97        Cu105   2.072       .  S
N98          C99   1.344       .  A
N98        Cu104   2.072       .  S
C99         C100   1.384       .  A
C99         H102   1.082       .  S
C100        C101   1.384       .  A
C100       C3101   1.487       .  S
C101        H103   1.082       .  S
Cu104       N107   2.072       .  S
Cu105       N115   2.072       .  S
Cu106       N108   2.070       .  S
Cu106       N114   2.071       .  S
N107        N108   1.321       .  A
N107        C111   1.345       .  A
N108        C109   1.344       .  A
C109        C110   1.384       .  A
C109        H112   1.082       .  S
C110        C111   1.385       .  A
C110       C3188   1.488       .  S
C111        H113   1.082       .  S
N114        N115   1.322       .  A
N114        C118   1.344       .  A
N115        C116   1.345       .  A
C116        C117   1.383       .  A
C116        H119   1.082       .  S
C117        C118   1.383       .  A
C117       C3087   1.485       .  S
C118        H120   1.082       .  S
N121        N122   1.323       .  A
N121        C125   1.345       .  A
N121       Cu129   2.081       .  S
N122        C123   1.346       .  A
N122       Cu128   2.079       .  S
C123        C124   1.386       .  A
C123        H126   1.082       .  S
C124        C125   1.386       .  A
C124       C3146   1.493       .  S
C125        H127   1.082       .  S
Cu128       N131   2.078       .  S
Cu129       N139   2.081       .  S
Cu130       N132   2.066       .  S
Cu130       N138   2.066       .  S
N131        N132   1.322       .  A
N131        C135   1.345       .  A
N132        C133   1.344       .  A
C133        C134   1.383       .  A
C133        H136   1.082       .  S
C134        C135   1.386       .  A
C134       C3104   1.488       .  S
C135        H137   1.082       .  S
N138        N139   1.322       .  A
N138        C142   1.343       .  A
N139        C140   1.347       .  A
C140        C141   1.387       .  A
C140        H143   1.082       .  S
C141        C142   1.383       .  A
C141       C3073   1.491       .  S
C142        H144   1.082       .  S
N145        N146   1.321       .  A
N145        C149   1.344       .  A
N145       Cu153   2.068       .  S
N146        C147   1.342       .  A
N146       Cu152   2.062       .  S
C147        C148   1.382       .  A
C147        H150   1.082       .  S
C148        C149   1.384       .  A
C148       C3045   1.484       .  S
C149        H151   1.082       .  S
Cu152       N155   2.062       .  S
Cu153       N163   2.068       .  S
Cu154       N156   2.080       .  S
Cu154       N162   2.081       .  S
N155        N156   1.321       .  A
N155        C159   1.343       .  A
N156        C157   1.346       .  A
C157        C158   1.387       .  A
C157        H160   1.082       .  S
C158        C159   1.382       .  A
C158       C3059   1.488       .  S
C159        H161   1.082       .  S
N162        N163   1.322       .  A
N162        C166   1.344       .  A
N163        C164   1.345       .  A
C164        C165   1.385       .  A
C164        H167   1.081       .  S
C165        C166   1.388       .  A
C165       C3031   1.493       .  S
C166        H168   1.082       .  S
N169        N170   1.322       .  A
N169        C173   1.346       .  A
N169       Cu177   2.075       .  S
N170        C171   1.343       .  A
N170       Cu176   2.065       .  S
C171        C172   1.382       .  A
C171        H174   1.082       .  S
C172        C173   1.384       .  A
C172       C3017   1.483       .  S
C173        H175   1.082       .  S
Cu176       N179   2.065       .  S
Cu177       N187   2.075       .  S
Cu178       N180   2.076       .  S
Cu178       N186   2.077       .  S
N179        N180   1.322       .  A
N179        C183   1.343       .  A
N180        C181   1.345       .  A
C181        C182   1.385       .  A
C181        H184   1.082       .  S
C182        C183   1.382       .  A
C182       C3048   1.485       .  S
C183        H185   1.082       .  S
N186        N187   1.322       .  A
N186        C190   1.345       .  A
N187        C188   1.345       .  A
C188        C189   1.384       .  A
C188        H191   1.082       .  S
C189        C190   1.385       .  A
C189       C3003   1.489       .  S
C190        H192   1.082       .  S
N193        N194   1.321       .  A
N193        C197   1.345       .  A
N193       Cu201   2.070       .  S
N194        C195   1.342       .  A
N194       Cu200   2.064       .  S
C195        C196   1.382       .  A
C195        H198   1.082       .  S
C196        C197   1.384       .  A
C196       C2989   1.484       .  S
C197        H199   1.082       .  S
Cu200       N203   2.064       .  S
Cu201       N211   2.071       .  S
Cu202       N204   2.078       .  S
Cu202       N210   2.079       .  S
N203        N204   1.322       .  A
N203        C207   1.343       .  A
N204        C205   1.346       .  A
C205        C206   1.386       .  A
C205        H208   1.082       .  S
C206        C207   1.382       .  A
C206       C3020   1.487       .  S
C207        H209   1.082       .  S
N210        N211   1.323       .  A
N210        C214   1.345       .  A
N211        C212   1.345       .  A
C212        C213   1.383       .  A
C212        H215   1.082       .  S
C213        C214   1.385       .  A
C213       C2975   1.489       .  S
C214        H216   1.082       .  S
N217        N218   1.321       .  A
N217        C221   1.347       .  A
N217       Cu225   2.084       .  S
N218        C219   1.343       .  A
N218       Cu224   2.064       .  S
C219        C220   1.384       .  A
C219        H222   1.082       .  S
C220        C221   1.389       .  A
C220       C2961   1.494       .  S
C221        H223   1.082       .  S
Cu224       N227   2.064       .  S
Cu225       N235   2.084       .  S
Cu226       N228   2.083       .  S
Cu226       N234   2.084       .  S
N227        N228   1.322       .  A
N227        C231   1.343       .  A
N228        C229   1.347       .  A
C229        C230   1.386       .  A
C229        H232   1.082       .  S
C230        C231   1.381       .  A
C230       C2947   1.486       .  S
C231        H233   1.082       .  S
N234        N235   1.323       .  A
N234        C238   1.347       .  A
N235        C236   1.346       .  A
C236        C237   1.386       .  A
C236        H239   1.082       .  S
C237        C238   1.387       .  A
C237       C2933   1.494       .  S
C238        H240   1.082       .  S
N241        N242   1.322       .  A
N241        C245   1.348       .  A
N241       Cu249   2.082       .  S
N242        C243   1.342       .  A
N242       Cu248   2.063       .  S
C243        C244   1.381       .  A
C243        H246   1.082       .  S
C244        C245   1.386       .  A
C244       C2950   1.486       .  S
C245        H247   1.082       .  S
Cu248       N251   2.063       .  S
Cu249       N259   2.083       .  S
Cu250       N252   2.074       .  S
Cu250       N258   2.076       .  S
N251        N252   1.321       .  A
N251        C255   1.343       .  A
N252        C253   1.345       .  A
C253        C254   1.385       .  A
C253        H256   1.082       .  S
C254        C255   1.382       .  A
C254       C2992   1.485       .  S
C255        H257   1.082       .  S
N258        N259   1.323       .  A
N258        C262   1.345       .  A
N259        C260   1.346       .  A
C260        C261   1.386       .  A
C260        H263   1.082       .  S
C261        C262   1.385       .  A
C261       C2919   1.492       .  S
C262        H264   1.082       .  S
N265        N266   1.321       .  A
N265        C269   1.343       .  A
N265       Cu273   2.061       .  S
N266        C267   1.344       .  A
N266       Cu272   2.063       .  S
C267        C268   1.383       .  A
C267        H270   1.082       .  S
C268        C269   1.381       .  A
C268       C3062   1.481       .  S
C269        H271   1.082       .  S
Cu272       N275   2.063       .  S
Cu273       N283   2.061       .  S
Cu274       N276   2.092       .  S
Cu274       N282   2.092       .  S
N275        N276   1.323       .  A
N275        C279   1.342       .  A
N276        C277   1.349       .  A
C277        C278   1.388       .  A
C277        H280   1.082       .  S
C278        C279   1.380       .  A
C278       C2964   1.488       .  S
C279        H281   1.082       .  S
N282        N283   1.322       .  A
N282        C286   1.346       .  A
N283        C284   1.344       .  A
C284        C285   1.382       .  A
C284        H287   1.082       .  S
C285        C286   1.388       .  A
C285       C2905   1.491       .  S
C286        H288   1.082       .  S
N289        N290   1.323       .  A
N289        C293   1.347       .  A
N289       Cu297   2.080       .  S
N290        C291   1.343       .  A
N290       Cu296   2.068       .  S
C291        C292   1.381       .  A
C291        H294   1.082       .  S
C292        C293   1.384       .  A
C292       C2877   1.484       .  S
C293        H295   1.082       .  S
Cu296       N299   2.067       .  S
Cu297       N307   2.080       .  S
Cu298       N300   2.076       .  S
Cu298       N306   2.077       .  S
N299        N300   1.321       .  A
N299        C303   1.345       .  A
N300        C301   1.345       .  A
C301        C302   1.386       .  A
C301        H304   1.082       .  S
C302        C303   1.384       .  A
C302       C2891   1.489       .  S
C303        H305   1.082       .  S
N306        N307   1.323       .  A
N306        C310   1.343       .  A
N307        C308   1.348       .  A
C308        C309   1.386       .  A
C308        H311   1.082       .  S
C309        C310   1.384       .  A
C309       C2863   1.491       .  S
C310        H312   1.082       .  S
N313        N314   1.323       .  A
N313        C317   1.344       .  A
N313       Cu321   2.082       .  S
N314        C315   1.345       .  A
N314       Cu320   2.070       .  S
C315        C316   1.384       .  A
C315        H318   1.082       .  S
C316        C317   1.385       .  A
C316       C2849   1.489       .  S
C317        H319   1.082       .  S
Cu320       N323   2.070       .  S
Cu321       N331   2.082       .  S
Cu322       N324   2.067       .  S
Cu322       N330   2.067       .  S
N323        N324   1.321       .  A
N323        C327   1.344       .  A
N324        C325   1.344       .  A
C325        C326   1.384       .  A
C325        H328   1.082       .  S
C326        C327   1.384       .  A
C326       C2880   1.487       .  S
C327        H329   1.082       .  S
N330        N331   1.322       .  A
N330        C334   1.343       .  A
N331        C332   1.348       .  A
C332        C333   1.387       .  A
C332        H335   1.082       .  S
C333        C334   1.382       .  A
C333       C2838   1.489       .  S
C334        H336   1.082       .  S
N337        N338   1.321       .  A
N337        C341   1.346       .  A
N337       Cu345   2.079       .  S
N338        C339   1.342       .  A
N338       Cu344   2.064       .  S
C339        C340   1.385       .  A
C339        H342   1.082       .  S
C340        C341   1.388       .  A
C340       C2821   1.492       .  S
C341        H343   1.081       .  S
Cu344       N347   2.064       .  S
Cu345       N355   2.079       .  S
Cu346       N348   2.080       .  S
Cu346       N354   2.081       .  S
N347        N348   1.322       .  A
N347        C351   1.343       .  A
N348        C349   1.346       .  A
C349        C350   1.386       .  A
C349        H352   1.082       .  S
C350        C351   1.383       .  A
C350       C2852   1.488       .  S
C351        H353   1.082       .  S
N354        N355   1.323       .  A
N354        C358   1.346       .  A
N355        C356   1.346       .  A
C356        C357   1.385       .  A
C356        H359   1.082       .  S
C357        C358   1.385       .  A
C357       C2810   1.490       .  S
C358        H360   1.082       .  S
N361        N362   1.320       .  A
N361        C365   1.344       .  A
N361       Cu369   2.061       .  S
N362        C363   1.345       .  A
N362       Cu368   2.075       .  S
C363        C364   1.386       .  A
C363        H366   1.082       .  S
C364        C365   1.384       .  A
C364       C2793   1.488       .  S
C365        H367   1.082       .  S
Cu368       N371   2.075       .  S
Cu369       N379   2.061       .  S
Cu370       N372   2.072       .  S
Cu370       N378   2.072       .  S
N371        N372   1.323       .  A
N371        C375   1.344       .  A
N372        C373   1.345       .  A
C373        C374   1.383       .  A
C373        H376   1.082       .  S
C374        C375   1.383       .  A
C374       C2779   1.484       .  S
C375        H377   1.082       .  S
N378        N379   1.322       .  A
N378        C382   1.344       .  A
N379        C380   1.343       .  A
C380        C381   1.380       .  A
C380        H383   1.082       .  S
C381        C382   1.384       .  A
C381       C2765   1.482       .  S
C382        H384   1.082       .  S
N385        N386   1.322       .  A
N385        C389   1.346       .  A
N385       Cu393   2.074       .  S
N386        C387   1.342       .  A
N386       Cu392   2.068       .  S
C387        C388   1.382       .  A
C387        H390   1.082       .  S
C388        C389   1.385       .  A
C388       C2782   1.486       .  S
C389        H391   1.082       .  S
Cu392       N395   2.067       .  S
Cu393       N403   2.074       .  S
Cu394       N396   2.067       .  S
Cu394       N402   2.067       .  S
N395        N396   1.321       .  A
N395        C399   1.344       .  A
N396        C397   1.344       .  A
C397        C398   1.383       .  A
C397        H400   1.082       .  S
C398        C399   1.384       .  A
C398       C2824   1.485       .  S
C399        H401   1.082       .  S
N402        N403   1.323       .  A
N402        C406   1.343       .  A
N403        C404   1.346       .  A
C404        C405   1.383       .  A
C404        H407   1.082       .  S
C405        C406   1.381       .  A
C405       C2751   1.482       .  S
C406        H408   1.082       .  S
N409        N410   1.322       .  A
N409        C413   1.346       .  A
N409       Cu417   2.078       .  S
N410        C411   1.344       .  A
N410       Cu416   2.068       .  S
C411        C412   1.382       .  A
C411        H414   1.082       .  S
C412        C413   1.385       .  A
C412       C2894   1.487       .  S
C413        H415   1.082       .  S
Cu416       N419   2.067       .  S
Cu417       N427   2.079       .  S
Cu418       N420   2.071       .  S
Cu418       N426   2.072       .  S
N419        N420   1.321       .  A
N419        C423   1.342       .  A
N420        C421   1.346       .  A
C421        C422   1.386       .  A
C421        H424   1.082       .  S
C422        C423   1.384       .  A
C422       C2796   1.488       .  S
C423        H425   1.082       .  S
N426        N427   1.323       .  A
N426        C430   1.342       .  A
N427        C428   1.347       .  A
C428        C429   1.386       .  A
C428        H431   1.082       .  S
C429        C430   1.383       .  A
C429       C2737   1.490       .  S
C430        H432   1.082       .  S
N433        N434   1.323       .  A
N433        C437   1.347       .  A
N433       Cu441   2.083       .  S
N434        C435   1.346       .  A
N434       Cu440   2.082       .  S
C435        C436   1.386       .  A
C435        H438   1.082       .  S
C436        C437   1.387       .  A
C436       C2709   1.495       .  S
C437        H439   1.082       .  S
Cu440       N443   2.081       .  S
Cu441       N451   2.082       .  S
Cu442       N444   2.067       .  S
Cu442       N450   2.067       .  S
N443        N444   1.321       .  A
N443        C447   1.345       .  A
N444        C445   1.345       .  A
C445        C446   1.385       .  A
C445        H448   1.082       .  S
C446        C447   1.388       .  A
C446       C2723   1.493       .  S
C447        H449   1.082       .  S
N450        N451   1.323       .  A
N450        C454   1.343       .  A
N451        C452   1.347       .  A
C452        C453   1.385       .  A
C452        H455   1.082       .  S
C453        C454   1.381       .  A
C453       C2698   1.485       .  S
C454        H456   1.082       .  S
N457        N458   1.323       .  A
N457        C461   1.347       .  A
N457       Cu465   2.077       .  S
N458        C459   1.345       .  A
N458       Cu464   2.084       .  S
C459        C460   1.384       .  A
C459        H462   1.082       .  S
C460        C461   1.384       .  A
C460       C2681   1.488       .  S
C461        H463   1.082       .  S
Cu464       N467   2.083       .  S
Cu465       N475   2.077       .  S
Cu466       N468   2.074       .  S
Cu466       N474   2.074       .  S
N467        N468   1.321       .  A
N467        C471   1.346       .  A
N468        C469   1.346       .  A
C469        C470   1.386       .  A
C469        H472   1.082       .  S
C470        C471   1.387       .  A
C470       C2712   1.495       .  S
C471        H473   1.082       .  S
N474        N475   1.323       .  A
N474        C478   1.343       .  A
N475        C476   1.347       .  A
C476        C477   1.386       .  A
C476        H479   1.082       .  S
C477        C478   1.383       .  A
C477       C2667   1.488       .  S
C478        H480   1.082       .  S
N481        N482   1.323       .  A
N481        C485   1.347       .  A
N481       Cu489   2.083       .  S
N482        C483   1.346       .  A
N482       Cu488   2.082       .  S
C483        C484   1.386       .  A
C483        H486   1.082       .  S
C484        C485   1.387       .  A
C484       C2653   1.495       .  S
C485        H487   1.082       .  S
Cu488       N491   2.081       .  S
Cu489       N499   2.083       .  S
Cu490       N492   2.068       .  S
Cu490       N498   2.068       .  S
N491        N492   1.321       .  A
N491        C495   1.345       .  A
N492        C493   1.346       .  A
C493        C494   1.386       .  A
C493        H496   1.082       .  S
C494        C495   1.388       .  A
C494       C2684   1.494       .  S
C495        H497   1.082       .  S
N498        N499   1.323       .  A
N498        C502   1.343       .  A
N499        C500   1.347       .  A
C500        C501   1.384       .  A
C500        H503   1.082       .  S
C501        C502   1.380       .  A
C501       C2639   1.483       .  S
C502        H504   1.082       .  S
N505        N506   1.321       .  A
N505        C509   1.347       .  A
N505       Cu513   2.083       .  S
N506        C507   1.343       .  A
N506       Cu512   2.066       .  S
C507        C508   1.384       .  A
C507        H510   1.082       .  S
C508        C509   1.388       .  A
C508       C2625   1.492       .  S
C509        H511   1.082       .  S
Cu512       N515   2.067       .  S
Cu513       N523   2.084       .  S
Cu514       N516   2.093       .  S
Cu514       N522   2.094       .  S
N515        N516   1.322       .  A
N515        C519   1.344       .  A
N516        C517   1.348       .  A
C517        C518   1.388       .  A
C517        H520   1.082       .  S
C518        C519   1.383       .  A
C518       C2611   1.492       .  S
C519        H521   1.082       .  S
N522        N523   1.324       .  A
N522        C526   1.348       .  A
N523        C524   1.347       .  A
C524        C525   1.387       .  A
C524        H527   1.082       .  S
C525        C526   1.388       .  A
C525       C2597   1.498       .  S
C526        H528   1.082       .  S
N529        N530   1.322       .  A
N529        C533   1.347       .  A
N529       Cu537   2.079       .  S
N530        C531   1.344       .  A
N530       Cu536   2.080       .  S
C531        C532   1.387       .  A
C531        H534   1.082       .  S
C532        C533   1.387       .  A
C532       C2614   1.495       .  S
C533        H535   1.082       .  S
Cu536       N539   2.080       .  S
Cu537       N547   2.079       .  S
Cu538       N540   2.080       .  S
Cu538       N546   2.081       .  S
N539        N540   1.322       .  A
N539        C543   1.345       .  A
N540        C541   1.348       .  A
C541        C542   1.387       .  A
C541        H544   1.082       .  S
C542        C543   1.385       .  A
C542       C2656   1.493       .  S
C543        H545   1.082       .  S
N546        N547   1.323       .  A
N546        C550   1.344       .  A
N547        C548   1.348       .  A
C548        C549   1.384       .  A
C548        H551   1.082       .  S
C549        C550   1.384       .  A
C549       C2583   1.489       .  S
C550        H552   1.082       .  S
N553        N554   1.322       .  A
N553        C557   1.346       .  A
N553       Cu561   2.075       .  S
N554        C555   1.345       .  A
N554       Cu560   2.079       .  S
C555        C556   1.385       .  A
C555        H558   1.082       .  S
C556        C557   1.384       .  A
C556       C2726   1.489       .  S
C557        H559   1.082       .  S
Cu560       N563   2.078       .  S
Cu561       N571   2.075       .  S
Cu562       N564   2.074       .  S
Cu562       N570   2.074       .  S
N563        N564   1.322       .  A
N563        C567   1.344       .  A
N564        C565   1.347       .  A
C565        C566   1.385       .  A
C565        H568   1.082       .  S
C566        C567   1.386       .  A
C566       C2628   1.491       .  S
C567        H569   1.082       .  S
N570        N571   1.323       .  A
N570        C574   1.345       .  A
N571        C572   1.345       .  A
C572        C573   1.383       .  A
C572        H575   1.082       .  S
C573        C574   1.382       .  A
C573       C2569   1.484       .  S
C574        H576   1.082       .  S
N577        N578   1.321       .  A
N577        C581   1.348       .  A
N577       Cu585   2.079       .  S
N578        C579   1.344       .  A
N578       Cu584   2.071       .  S
C579        C580   1.384       .  A
C579        H582   1.082       .  S
C580        C581   1.388       .  A
C580       C2544   1.492       .  S
C581        H583   1.082       .  S
Cu584       N587   2.070       .  S
Cu585       N595   2.079       .  S
Cu586       N588   2.075       .  S
Cu586       N594   2.076       .  S
N587        N588   1.321       .  A
N587        C591   1.342       .  A
N588        C589   1.347       .  A
C589        C590   1.387       .  A
C589        H592   1.082       .  S
C590        C591   1.385       .  A
C590       C2555   1.492       .  S
C591        H593   1.082       .  S
N594        N595   1.324       .  A
N594        C598   1.344       .  A
N595        C596   1.345       .  A
C596        C597   1.383       .  A
C596        H599   1.082       .  S
C597        C598   1.382       .  A
C597       C2530   1.485       .  S
C598        H600   1.082       .  S
N601        N602   1.323       .  A
N601        C605   1.348       .  A
N601       Cu609   2.084       .  S
N602        C603   1.342       .  A
N602       Cu608   2.077       .  S
C603        C604   1.385       .  A
C603        H606   1.082       .  S
C604        C605   1.388       .  A
C604       C2558   1.494       .  S
C605        H607   1.082       .  S
Cu608       N611   2.077       .  S
Cu609       N619   2.084       .  S
Cu610       N612   2.061       .  S
Cu610       N618   2.062       .  S
N611        N612   1.320       .  A
N611        C615   1.346       .  A
N612        C613   1.344       .  A
C613        C614   1.383       .  A
C613        H616   1.082       .  S
C614        C615   1.386       .  A
C614       C2513   1.488       .  S
C615        H617   1.082       .  S
N618        N619   1.322       .  A
N618        C622   1.341       .  A
N619        C620   1.347       .  A
C620        C621   1.387       .  A
C620        H623   1.082       .  S
C621        C622   1.380       .  A
C621       C2499   1.486       .  S
C622        H624   1.082       .  S
N625        N626   1.321       .  A
N625        C629   1.346       .  A
N625       Cu633   2.070       .  S
N626        C627   1.343       .  A
N626       Cu632   2.072       .  S
C627        C628   1.385       .  A
C627        H630   1.082       .  S
C628        C629   1.386       .  A
C628       C2485   1.490       .  S
C629        H631   1.082       .  S
Cu632       N635   2.072       .  S
Cu633       N643   2.070       .  S
Cu634       N636   2.079       .  S
Cu634       N642   2.080       .  S
N635        N636   1.322       .  A
N635        C639   1.345       .  A
N636        C637   1.346       .  A
C637        C638   1.387       .  A
C637        H640   1.082       .  S
C638        C639   1.384       .  A
C638       C2541   1.491       .  S
C639        H641   1.082       .  S
N642        N643   1.323       .  A
N642        C646   1.346       .  A
N643        C644   1.343       .  A
C644        C645   1.381       .  A
C644        H647   1.082       .  S
C645        C646   1.385       .  A
C645       C2471   1.486       .  S
C646        H648   1.082       .  S
N649        N650   1.322       .  A
N649        C653   1.346       .  A
N649       Cu657   2.073       .  S
N650        C651   1.344       .  A
N650       Cu656   2.079       .  S
C651        C652   1.386       .  A
C651        H654   1.082       .  S
C652        C653   1.385       .  A
C652       C2516   1.491       .  S
C653        H655   1.082       .  S
Cu656       N659   2.080       .  S
Cu657       N667   2.073       .  S
Cu658       N660   2.072       .  S
Cu658       N666   2.073       .  S
N659        N660   1.322       .  A
N659        C663   1.346       .  A
N660        C661   1.345       .  A
C661        C662   1.385       .  A
C661        H664   1.082       .  S
C662        C663   1.387       .  A
C662       C2460   1.493       .  S
C663        H665   1.082       .  S
N666        N667   1.322       .  A
N666        C670   1.345       .  A
N667        C668   1.345       .  A
C668        C669   1.383       .  A
C668        H671   1.082       .  S
C669        C670   1.383       .  A
C669       C2443   1.486       .  S
C670        H672   1.082       .  S
N673        N674   1.323       .  A
N673        C677   1.348       .  A
N673       Cu681   2.081       .  S
N674        C675   1.344       .  A
N674       Cu680   2.081       .  S
C675        C676   1.385       .  A
C675        H678   1.082       .  S
C676        C677   1.386       .  A
C676       C2457   1.492       .  S
C677        H679   1.082       .  S
Cu680       N683   2.081       .  S
Cu681       N691   2.081       .  S
Cu682       N684   2.070       .  S
Cu682       N690   2.071       .  S
N683        N684   1.321       .  A
N683        C687   1.346       .  A
N684        C685   1.345       .  A
C685        C686   1.384       .  A
C685        H688   1.082       .  S
C686        C687   1.388       .  A
C686       C2429   1.492       .  S
C687        H689   1.082       .  S
N690        N691   1.323       .  A
N690        C694   1.343       .  A
N691        C692   1.347       .  A
C692        C693   1.386       .  A
C692        H695   1.082       .  S
C693        C694   1.383       .  A
C693       C2415   1.489       .  S
C694        H696   1.082       .  S
N697        N698   1.322       .  A
N697        C701   1.347       .  A
N697       Cu705   2.082       .  S
N698        C699   1.344       .  A
N698       Cu704   2.071       .  S
C699        C700   1.384       .  A
C699        H702   1.082       .  S
C700        C701   1.387       .  A
C700       C2432   1.491       .  S
C701        H703   1.082       .  S
Cu704       N707   2.070       .  S
Cu705       N715   2.082       .  S
Cu706       N708   2.079       .  S
Cu706       N714   2.080       .  S
N707        N708   1.321       .  A
N707        C711   1.344       .  A
N708        C709   1.347       .  A
C709        C710   1.387       .  A
C709        H712   1.082       .  S
C710        C711   1.385       .  A
C710       C2488   1.493       .  S
C711        H713   1.082       .  S
N714        N715   1.323       .  A
N714        C718   1.345       .  A
N715        C716   1.347       .  A
C716        C717   1.385       .  A
C716        H719   1.082       .  S
C717        C718   1.384       .  A
C717       C2401   1.490       .  S
C718        H720   1.082       .  S
N721        N722   1.322       .  A
N721        C725   1.347       .  A
N721       Cu729   2.088       .  S
N722        C723   1.344       .  A
N722       Cu728   2.066       .  S
C723        C724   1.384       .  A
C723        H726   1.082       .  S
C724        C725   1.388       .  A
C724       C2373   1.492       .  S
C725        H727   1.082       .  S
Cu728       N731   2.065       .  S
Cu729       N739   2.089       .  S
Cu730       N732   2.079       .  S
Cu730       N738   2.080       .  S
N731        N732   1.321       .  A
N731        C735   1.343       .  A
N732        C733   1.346       .  A
C733        C734   1.388       .  A
C733        H736   1.082       .  S
C734        C735   1.383       .  A
C734       C2387   1.490       .  S
C735        H737   1.082       .  S
N738        N739   1.323       .  A
N738        C742   1.345       .  A
N739        C740   1.348       .  A
C740        C741   1.388       .  A
C740        H743   1.082       .  S
C741        C742   1.385       .  A
C741       C2359   1.496       .  S
C742        H744   1.082       .  S
N745        N746   1.322       .  A
N745        C749   1.347       .  A
N745       Cu753   2.078       .  S
N746        C747   1.342       .  A
N746       Cu752   2.061       .  S
C747        C748   1.381       .  A
C747        H750   1.082       .  S
C748        C749   1.385       .  A
C748       C2390   1.485       .  S
C749        H751   1.082       .  S
Cu752       N755   2.061       .  S
Cu753       N763   2.079       .  S
Cu754       N756   2.081       .  S
Cu754       N762   2.082       .  S
N755        N756   1.321       .  A
N755        C759   1.342       .  A
N756        C757   1.347       .  A
C757        C758   1.387       .  A
C757        H760   1.082       .  S
C758        C759   1.382       .  A
C758       C2345   1.487       .  S
C759        H761   1.082       .  S
N762        N763   1.323       .  A
N762        C766   1.345       .  A
N763        C764   1.347       .  A
C764        C765   1.385       .  A
C764        H767   1.082       .  S
C765        C766   1.386       .  A
C765       C2331   1.493       .  S
C766        H768   1.082       .  S
N769        N770   1.323       .  A
N769        C773   1.346       .  A
N769       Cu777   2.073       .  S
N770        C771   1.345       .  A
N770       Cu776   2.082       .  S
C771        C772   1.384       .  A
C771        H774   1.082       .  S
C772        C773   1.384       .  A
C772       C2317   1.489       .  S
C773        H775   1.082       .  S
Cu776       N779   2.082       .  S
Cu777       N787   2.073       .  S
Cu778       N780   2.071       .  S
Cu778       N786   2.071       .  S
N779        N780   1.321       .  A
N779        C783   1.346       .  A
N780        C781   1.345       .  A
C781        C782   1.386       .  A
C781        H784   1.082       .  S
C782        C783   1.389       .  A
C782       C2376   1.496       .  S
C783        H785   1.082       .  S
N786        N787   1.322       .  A
N786        C790   1.343       .  A
N787        C788   1.346       .  A
C788        C789   1.384       .  A
C788        H791   1.082       .  S
C789        C790   1.384       .  A
C789       C2303   1.487       .  S
C790        H792   1.082       .  S
N793        N794   1.322       .  A
N793        C797   1.346       .  A
N793       Cu801   2.074       .  S
N794        C795   1.343       .  A
N794       Cu800   2.066       .  S
C795        C796   1.382       .  A
C795        H798   1.082       .  S
C796        C797   1.385       .  A
C796       C2348   1.486       .  S
C797        H799   1.082       .  S
Cu800       N803   2.065       .  S
Cu801       N811   2.074       .  S
Cu802       N804   2.064       .  S
Cu802       N810   2.064       .  S
N803        N804   1.321       .  A
N803        C807   1.343       .  A
N804        C805   1.344       .  A
C805        C806   1.384       .  A
C805        H808   1.082       .  S
C806        C807   1.384       .  A
C806       C2289   1.485       .  S
C807        H809   1.082       .  S
N810        N811   1.323       .  A
N810        C814   1.343       .  A
N811        C812   1.345       .  A
C812        C813   1.382       .  A
C812        H815   1.082       .  S
C813        C814   1.379       .  A
C813       C2275   1.479       .  S
C814        H816   1.082       .  S
N817        N818   1.321       .  A
N817        C821   1.343       .  A
N817       Cu825   2.057       .  S
N818        C819   1.343       .  A
N818       Cu824   2.078       .  S
C819        C820   1.386       .  A
C819        H822   1.082       .  S
C820        C821   1.382       .  A
C820       C2292   1.487       .  S
C821        H823   1.082       .  S
Cu824       N827   2.078       .  S
Cu825       N835   2.057       .  S
Cu826       N828   2.069       .  S
Cu826       N834   2.068       .  S
N827        N828   1.322       .  A
N827        C831   1.345       .  A
N828        C829   1.345       .  A
C829        C830   1.384       .  A
C829        H832   1.082       .  S
C830        C831   1.385       .  A
C830       C2261   1.489       .  S
C831        H833   1.082       .  S
N834        N835   1.321       .  A
N834        C838   1.342       .  A
N835        C836   1.343       .  A
C836        C837   1.381       .  A
C836        H839   1.082       .  S
C837        C838   1.383       .  A
C837       C2247   1.481       .  S
C838        H840   1.082       .  S
N841        N842   1.322       .  A
N841        C845   1.348       .  A
N841       Cu849   2.087       .  S
N842        C843   1.342       .  A
N842       Cu848   2.065       .  S
C843        C844   1.382       .  A
C843        H846   1.082       .  S
C844        C845   1.388       .  A
C844       C2264   1.490       .  S
C845        H847   1.082       .  S
Cu848       N851   2.065       .  S
Cu849       N859   2.088       .  S
Cu850       N852   2.077       .  S
Cu850       N858   2.077       .  S
N851        N852   1.321       .  A
N851        C855   1.344       .  A
N852        C853   1.346       .  A
C853        C854   1.385       .  A
C853        H856   1.082       .  S
C854        C855   1.382       .  A
C854       C2320   1.486       .  S
C855        H857   1.082       .  S
N858        N859   1.324       .  A
N858        C862   1.345       .  A
N859        C860   1.347       .  A
C860        C861   1.386       .  A
C860        H863   1.082       .  S
C861        C862   1.382       .  A
C861       C2236   1.489       .  S
C862        H864   1.082       .  S
N865        N866   1.321       .  A
N865        C869   1.347       .  A
N865       Cu873   2.084       .  S
N866        C867   1.343       .  A
N866       Cu872   2.060       .  S
C867        C868   1.381       .  A
C867        H870   1.082       .  S
C868        C869   1.388       .  A
C868       C2205   1.488       .  S
C869        H871   1.082       .  S
Cu872       N875   2.059       .  S
Cu873       N883   2.085       .  S
Cu874       N876   2.083       .  S
Cu874       N882   2.084       .  S
N875        N876   1.321       .  A
N875        C879   1.341       .  A
N876        C877   1.348       .  A
C877        C878   1.388       .  A
C877        H880   1.082       .  S
C878        C879   1.381       .  A
C878       C2219   1.488       .  S
C879        H881   1.082       .  S
N882        N883   1.324       .  A
N882        C886   1.345       .  A
N883        C884   1.348       .  A
C884        C885   1.386       .  A
C884        H887   1.082       .  S
C885        C886   1.386       .  A
C885       C2191   1.493       .  S
C886        H888   1.082       .  S
N889        N890   1.322       .  A
N889        C893   1.348       .  A
N889       Cu897   2.083       .  S
N890        C891   1.342       .  A
N890       Cu896   2.068       .  S
C891        C892   1.382       .  A
C891        H894   1.082       .  S
C892        C893   1.388       .  A
C892       C2222   1.491       .  S
C893        H895   1.082       .  S
Cu896       N899   2.067       .  S
Cu897       N907   2.083       .  S
Cu898       N900   2.073       .  S
Cu898       N906   2.073       .  S
N899        N900   1.320       .  A
N899        C903   1.344       .  A
N900        C901   1.346       .  A
C901        C902   1.387       .  A
C901        H904   1.082       .  S
C902        C903   1.385       .  A
C902       C2177   1.492       .  S
C903        H905   1.082       .  S
N906        N907   1.323       .  A
N906        C910   1.343       .  A
N907        C908   1.347       .  A
C908        C909   1.387       .  A
C908        H911   1.082       .  S
C909        C910   1.384       .  A
C909       C2163   1.491       .  S
C910        H912   1.082       .  S
N913        N914   1.322       .  A
N913        C917   1.348       .  A
N913       Cu921   2.092       .  S
N914        C915   1.344       .  A
N914       Cu920   2.073       .  S
C915        C916   1.386       .  A
C915        H918   1.082       .  S
C916        C917   1.390       .  A
C916       C2149   1.499       .  S
C917        H919   1.082       .  S
Cu920       N923   2.073       .  S
Cu921       N931   2.092       .  S
Cu922       N924   2.080       .  S
Cu922       N930   2.080       .  S
N923        N924   1.322       .  A
N923        C927   1.344       .  A
N924        C925   1.347       .  A
C925        C926   1.386       .  A
C925        H928   1.082       .  S
C926        C927   1.384       .  A
C926       C2208   1.491       .  S
C927        H929   1.082       .  S
N930        N931   1.324       .  A
N930        C934   1.346       .  A
N931        C932   1.348       .  A
C932        C933   1.387       .  A
C932        H935   1.082       .  S
C933        C934   1.385       .  A
C933       C2135   1.494       .  S
C934        H936   1.082       .  S
N937        N938   1.322       .  A
N937        C941   1.348       .  A
N937       Cu945   2.079       .  S
N938        C939   1.344       .  A
N938       Cu944   2.078       .  S
C939        C940   1.386       .  A
C939        H942   1.082       .  S
C940        C941   1.388       .  A
C940       C2180   1.495       .  S
C941        H943   1.082       .  S
Cu944       N947   2.078       .  S
Cu945       N955   2.080       .  S
Cu946       N948   2.084       .  S
Cu946       N954   2.084       .  S
N947        N948   1.321       .  A
N947        C951   1.345       .  A
N948        C949   1.348       .  A
C949        C950   1.389       .  A
C949        H952   1.082       .  S
C950        C951   1.387       .  A
C950       C2121   1.498       .  S
C951        H953   1.082       .  S
N954        N955   1.323       .  A
N954        C958   1.345       .  A
N955        C956   1.346       .  A
C956        C957   1.386       .  A
C956        H959   1.082       .  S
C957        C958   1.386       .  A
C957       C2107   1.493       .  S
C958        H960   1.082       .  S
N961        N962   1.322       .  A
N961        C965   1.348       .  A
N961       Cu969   2.089       .  S
N962        C963   1.345       .  A
N962       Cu968   2.081       .  S
C963        C964   1.388       .  A
C963        H966   1.082       .  S
C964        C965   1.390       .  A
C964       C2124   1.501       .  S
C965        H967   1.081       .  S
Cu968       N971   2.080       .  S
Cu969       N979   2.090       .  S
Cu970       N972   2.084       .  S
Cu970       N978   2.084       .  S
N971        N972   1.322       .  A
N971        C975   1.346       .  A
N972        C973   1.347       .  A
C973        C974   1.388       .  A
C973        H976   1.082       .  S
C974        C975   1.387       .  A
C974       C2093   1.497       .  S
C975        H977   1.082       .  S
N978        N979   1.323       .  A
N978        C982   1.346       .  A
N979        C980   1.349       .  A
C980        C981   1.387       .  A
C980        H983   1.082       .  S
C981        C982   1.386       .  A
C981       C2079   1.495       .  S
C982        H984   1.082       .  S
N985        N986   1.322       .  A
N985        C989   1.347       .  A
N985       Cu993   2.079       .  S
N986        C987   1.345       .  A
N986       Cu992   2.081       .  S
C987        C988   1.386       .  A
C987        H990   1.082       .  S
C988        C989   1.386       .  A
C988       C2096   1.494       .  S
C989        H991   1.082       .  S
Cu992       N995   2.081       .  S
Cu993      N1003   2.079       .  S
Cu994       N996   2.079       .  S
Cu994      N1002   2.079       .  S
N995        N996   1.322       .  A
N995        C999   1.345       .  A
N996        C997   1.348       .  A
C997        C998   1.386       .  A
C997       H1000   1.082       .  S
C998        C999   1.386       .  A
C998       C2152   1.492       .  S
C999       H1001   1.082       .  S
N1002      N1003   1.323       .  A
N1002      C1006   1.345       .  A
N1003      C1004   1.346       .  A
C1004      C1005   1.384       .  A
C1004      H1007   1.082       .  S
C1005      C1006   1.384       .  A
C1005      C2065   1.489       .  S
C1006      H1008   1.082       .  S
N1009      N1010   1.321       .  A
N1009      C1013   1.348       .  A
N1009     Cu1017   2.084       .  S
N1010      C1011   1.343       .  A
N1010     Cu1016   2.066       .  S
C1011      C1012   1.383       .  A
C1011      H1014   1.082       .  S
C1012      C1013   1.388       .  A
C1012      C2037   1.491       .  S
C1013      H1015   1.082       .  S
Cu1016     N1019   2.066       .  S
Cu1017     N1027   2.085       .  S
Cu1018     N1020   2.072       .  S
Cu1018     N1026   2.073       .  S
N1019      N1020   1.321       .  A
N1019      C1023   1.343       .  A
N1020      C1021   1.346       .  A
C1021      C1022   1.386       .  A
C1021      H1024   1.082       .  S
C1022      C1023   1.383       .  A
C1022      C2051   1.488       .  S
C1023      H1025   1.082       .  S
N1026      N1027   1.324       .  A
N1026      C1030   1.344       .  A
N1027      C1028   1.346       .  A
C1028      C1029   1.385       .  A
C1028      H1031   1.082       .  S
C1029      C1030   1.382       .  A
C1029      C2023   1.487       .  S
C1030      H1032   1.082       .  S
N1033      N1034   1.322       .  A
N1033      C1037   1.346       .  A
N1033     Cu1041   2.078       .  S
N1034      C1035   1.345       .  A
N1034     Cu1040   2.074       .  S
C1035      C1036   1.384       .  A
C1035      H1038   1.082       .  S
C1036      C1037   1.384       .  A
C1036      C2009   1.488       .  S
C1037      H1039   1.082       .  S
Cu1040     N1043   2.073       .  S
Cu1041     N1051   2.078       .  S
Cu1042     N1044   2.079       .  S
Cu1042     N1050   2.080       .  S
N1043      N1044   1.322       .  A
N1043      C1047   1.344       .  A
N1044      C1045   1.347       .  A
C1045      C1046   1.385       .  A
C1045      H1048   1.082       .  S
C1046      C1047   1.384       .  A
C1046      C2040   1.489       .  S
C1047      H1049   1.082       .  S
N1050      N1051   1.323       .  A
N1050      C1054   1.345       .  A
N1051      C1052   1.346       .  A
C1052      C1053   1.385       .  A
C1052      H1055   1.082       .  S
C1053      C1054   1.385       .  A
C1053      C1998   1.491       .  S
C1054      H1056   1.082       .  S
N1057      N1058   1.323       .  A
N1057      C1061   1.346       .  A
N1057     Cu1065   2.076       .  S
N1058      C1059   1.344       .  A
N1058     Cu1064   2.077       .  S
C1059      C1060   1.384       .  A
C1059      H1062   1.082       .  S
C1060      C1061   1.384       .  A
C1060      C1981   1.487       .  S
C1061      H1063   1.082       .  S
Cu1064     N1067   2.077       .  S
Cu1065     N1075   2.076       .  S
Cu1066     N1068   2.068       .  S
Cu1066     N1074   2.069       .  S
N1067      N1068   1.321       .  A
N1067      C1071   1.345       .  A
N1068      C1069   1.346       .  A
C1069      C1070   1.384       .  A
C1069      H1072   1.082       .  S
C1070      C1071   1.386       .  A
C1070      C2012   1.490       .  S
C1071      H1073   1.082       .  S
N1074      N1075   1.323       .  A
N1074      C1078   1.343       .  A
N1075      C1076   1.346       .  A
C1076      C1077   1.384       .  A
C1076      H1079   1.082       .  S
C1077      C1078   1.381       .  A
C1077      C1967   1.483       .  S
C1078      H1080   1.082       .  S
N1081      N1082   1.321       .  A
N1081      C1085   1.343       .  A
N1081     Cu1089   2.062       .  S
N1082      C1083   1.343       .  A
N1082     Cu1088   2.069       .  S
C1083      C1084   1.384       .  A
C1083      H1086   1.082       .  S
C1084      C1085   1.382       .  A
C1084      C1953   1.484       .  S
C1085      H1087   1.082       .  S
Cu1088     N1091   2.069       .  S
Cu1089     N1099   2.062       .  S
Cu1090     N1092   2.080       .  S
Cu1090     N1098   2.081       .  S
N1091      N1092   1.322       .  A
N1091      C1095   1.344       .  A
N1092      C1093   1.346       .  A
C1093      C1094   1.386       .  A
C1093      H1096   1.082       .  S
C1094      C1095   1.384       .  A
C1094      C1984   1.490       .  S
C1095      H1097   1.082       .  S
N1098      N1099   1.322       .  A
N1098      C1102   1.344       .  A
N1099      C1100   1.345       .  A
C1100      C1101   1.382       .  A
C1100      H1103   1.082       .  S
C1101      C1102   1.386       .  A
C1101      C1939   1.486       .  S
C1102      H1104   1.082       .  S
N1105      N1106   1.322       .  A
N1105      C1109   1.346       .  A
N1105     Cu1113   2.075       .  S
N1106      C1107   1.344       .  A
N1106     Cu1112   2.075       .  S
C1107      C1108   1.385       .  A
C1107      H1110   1.082       .  S
C1108      C1109   1.386       .  A
C1108      C2054   1.491       .  S
C1109      H1111   1.082       .  S
Cu1112     N1115   2.075       .  S
Cu1113     N1123   2.075       .  S
Cu1114     N1116   2.071       .  S
Cu1114     N1122   2.072       .  S
N1115      N1116   1.321       .  A
N1115      C1119   1.345       .  A
N1116      C1117   1.345       .  A
C1117      C1118   1.385       .  A
C1117      H1120   1.082       .  S
C1118      C1119   1.385       .  A
C1118      C1928   1.490       .  S
C1119      H1121   1.082       .  S
N1122      N1123   1.322       .  A
N1122      C1126   1.344       .  A
N1123      C1124   1.345       .  A
C1124      C1125   1.385       .  A
C1124      H1127   1.082       .  S
C1125      C1126   1.383       .  A
C1125      C1911   1.487       .  S
C1126      H1128   1.082       .  S
N1129      N1130   1.321       .  A
N1129      C1133   1.346       .  A
N1129     Cu1137   2.076       .  S
N1130      C1131   1.343       .  A
N1130     Cu1136   2.064       .  S
C1131      C1132   1.383       .  A
C1131      H1134   1.082       .  S
C1132      C1133   1.386       .  A
C1132      C1925   1.488       .  S
C1133      H1135   1.082       .  S
Cu1136     N1139   2.064       .  S
Cu1137     N1147   2.076       .  S
Cu1138     N1140   2.063       .  S
Cu1138     N1146   2.064       .  S
N1139      N1140   1.321       .  A
N1139      C1143   1.342       .  A
N1140      C1141   1.344       .  A
C1141      C1142   1.383       .  A
C1141      H1144   1.082       .  S
C1142      C1143   1.382       .  A
C1142      C1956   1.482       .  S
C1143      H1145   1.082       .  S
N1146      N1147   1.323       .  A
N1146      C1150   1.342       .  A
N1147      C1148   1.345       .  A
C1148      C1149   1.384       .  A
C1148      H1151   1.082       .  S
C1149      C1150   1.381       .  A
C1149      C1897   1.483       .  S
C1150      H1152   1.082       .  S
N1153      N1154   1.321       .  A
N1153      C1157   1.347       .  A
N1153     Cu1161   2.083       .  S
N1154      C1155   1.346       .  A
N1154     Cu1160   2.076       .  S
C1155      C1156   1.386       .  A
C1155      H1158   1.082       .  S
C1156      C1157   1.388       .  A
C1156      C2138   1.496       .  S
C1157      H1159   1.082       .  S
Cu1160     N1163   2.076       .  S
Cu1161     N1171   2.083       .  S
Cu1162     N1164   2.077       .  S
Cu1162     N1170   2.077       .  S
N1163      N1164   1.323       .  A
N1163      C1167   1.343       .  A
N1164      C1165   1.347       .  A
C1165      C1166   1.385       .  A
C1165      H1168   1.082       .  S
C1166      C1167   1.383       .  A
C1166      C1970   1.487       .  S
C1167      H1169   1.082       .  S
N1170      N1171   1.323       .  A
N1170      C1174   1.346       .  A
N1171      C1172   1.346       .  A
C1172      C1173   1.386       .  A
C1172      H1175   1.082       .  S
C1173      C1174   1.386       .  A
C1173      C1883   1.494       .  S
C1174      H1176   1.082       .  S
N1177      N1178   1.322       .  A
N1177      C1181   1.347       .  A
N1177     Cu1185   2.078       .  S
N1178      C1179   1.342       .  A
N1178     Cu1184   2.067       .  S
C1179      C1180   1.383       .  A
C1179      H1182   1.082       .  S
C1180      C1181   1.386       .  A
C1180      C2026   1.489       .  S
C1181      H1183   1.082       .  S
Cu1184     N1187   2.067       .  S
Cu1185     N1195   2.079       .  S
Cu1186     N1188   2.069       .  S
Cu1186     N1194   2.069       .  S
N1187      N1188   1.321       .  A
N1187      C1191   1.343       .  A
N1188      C1189   1.346       .  A
C1189      C1190   1.383       .  A
C1189      H1192   1.082       .  S
C1190      C1191   1.382       .  A
C1190      C2306   1.483       .  S
C1191      H1193   1.082       .  S
N1194      N1195   1.323       .  A
N1194      C1198   1.344       .  A
N1195      C1196   1.346       .  A
C1196      C1197   1.385       .  A
C1196      H1199   1.082       .  S
C1197      C1198   1.382       .  A
C1197      C1869   1.486       .  S
C1198      H1200   1.082       .  S
N1201      N1202   1.322       .  A
N1201      C1205   1.346       .  A
N1201     Cu1209   2.071       .  S
N1202      C1203   1.342       .  A
N1202     Cu1208   2.064       .  S
C1203      C1204   1.380       .  A
C1203      H1206   1.082       .  S
C1204      C1205   1.382       .  A
C1204      C1900   1.478       .  S
C1205      H1207   1.082       .  S
Cu1208     N1211   2.065       .  S
Cu1209     N1219   2.072       .  S
Cu1210     N1212   2.081       .  S
Cu1210     N1218   2.081       .  S
N1211      N1212   1.321       .  A
N1211      C1215   1.342       .  A
N1212      C1213   1.347       .  A
C1213      C1214   1.388       .  A
C1213      H1216   1.082       .  S
C1214      C1215   1.383       .  A
C1214      C2474   1.491       .  S
C1215      H1217   1.082       .  S
N1218      N1219   1.323       .  A
N1218      C1222   1.346       .  A
N1219      C1220   1.344       .  A
C1220      C1221   1.385       .  A
C1220      H1223   1.082       .  S
C1221      C1222   1.387       .  A
C1221      C1855   1.493       .  S
C1222      H1224   1.082       .  S
N1225      N1226   1.323       .  A
N1225      C1229   1.350       .  A
N1225     Cu1233   2.093       .  S
N1226      C1227   1.344       .  A
N1226     Cu1232   2.074       .  S
C1227      C1228   1.383       .  A
C1227      H1230   1.082       .  S
C1228      C1229   1.389       .  A
C1228      C2082   1.494       .  S
C1229      H1231   1.082       .  S
Cu1232     N1235   2.074       .  S
Cu1233     N1243   2.093       .  S
Cu1234     N1236   2.073       .  S
Cu1234     N1242   2.074       .  S
N1235      N1236   1.320       .  A
N1235      C1239   1.344       .  A
N1236      C1237   1.346       .  A
C1237      C1238   1.388       .  A
C1237      H1240   1.082       .  S
C1238      C1239   1.386       .  A
C1238      C3006   1.495       .  S
C1239      H1241   1.082       .  S
N1242      N1243   1.324       .  A
N1242      C1246   1.344       .  A
N1243      C1244   1.348       .  A
C1244      C1245   1.387       .  A
C1244      H1247   1.082       .  S
C1245      C1246   1.382       .  A
C1245      C1841   1.491       .  S
C1246      H1248   1.082       .  S
N1249      N1250   1.322       .  A
N1249      C1253   1.343       .  A
N1249     Cu1257   2.058       .  S
N1250      C1251   1.342       .  A
N1250     Cu1256   2.070       .  S
C1251      C1252   1.382       .  A
C1251      H1254   1.082       .  S
C1252      C1253   1.380       .  A
C1252      C2250   1.479       .  S
C1253      H1255   1.082       .  S
Cu1256     N1259   2.070       .  S
Cu1257     N1267   2.058       .  S
Cu1258     N1260   2.065       .  S
Cu1258     N1266   2.065       .  S
N1259      N1260   1.321       .  A
N1259      C1263   1.345       .  A
N1260      C1261   1.343       .  A
C1261      C1262   1.383       .  A
C1261      H1264   1.082       .  S
C1262      C1263   1.385       .  A
C1262      C2670   1.486       .  S
C1263      H1265   1.082       .  S
N1266      N1267   1.321       .  A
N1266      C1270   1.343       .  A
N1267      C1268   1.342       .  A
C1268      C1269   1.381       .  A
C1268      H1271   1.082       .  S
C1269      C1270   1.383       .  A
C1269      C1827   1.481       .  S
C1270      H1272   1.082       .  S
N1273      N1274   1.323       .  A
N1273      C1277   1.345       .  A
N1273     Cu1281   2.076       .  S
N1274      C1275   1.346       .  A
N1274     Cu1280   2.077       .  S
C1275      C1276   1.383       .  A
C1275      H1278   1.082       .  S
C1276      C1277   1.383       .  A
C1276      C2418   1.485       .  S
C1277      H1279   1.082       .  S
Cu1280     N1283   2.077       .  S
Cu1281     N1291   2.076       .  S
Cu1282     N1284   2.080       .  S
Cu1282     N1290   2.080       .  S
N1283      N1284   1.323       .  A
N1283      C1287   1.345       .  A
N1284      C1285   1.346       .  A
C1285      C1286   1.384       .  A
C1285      H1288   1.082       .  S
C1286      C1287   1.384       .  A
C1286      C2835   1.488       .  S
C1287      H1289   1.082       .  S
N1290      N1291   1.322       .  A
N1290      C1294   1.346       .  A
N1291      C1292   1.346       .  A
C1292      C1293   1.384       .  A
C1292      H1295   1.082       .  S
C1293      C1294   1.385       .  A
C1293      C1813   1.489       .  S
C1294      H1296   1.082       .  S
N1297      N1298   1.321       .  A
N1297      C1301   1.346       .  A
N1297     Cu1305   2.073       .  S
N1298      C1299   1.344       .  A
N1298     Cu1304   2.072       .  S
C1299      C1300   1.385       .  A
C1299      H1302   1.082       .  S
C1300      C1301   1.385       .  A
C1300      C2866   1.491       .  S
C1301      H1303   1.082       .  S
Cu1304     N1307   2.072       .  S
Cu1305     N1315   2.074       .  S
Cu1306     N1308   2.084       .  S
Cu1306     N1314   2.084       .  S
N1307      N1308   1.323       .  A
N1307      C1311   1.345       .  A
N1308      C1309   1.346   1_455  A
C1309      C1310   1.386       .  A
C1309      H1312   1.082       .  S
C1310      C1311   1.383   1_655  A
C1310      C3132   1.489       .  S
C1311      H1313   1.082       .  S
N1314      N1315   1.323       .  A
N1314      C1318   1.347       .  A
N1315      C1316   1.345       .  A
C1316      C1317   1.384       .  A
C1316      H1319   1.082       .  S
C1317      C1318   1.388       .  A
C1317      C1799   1.492       .  S
C1318      H1320   1.082       .  S
N1321      N1322   1.323       .  A
N1321      C1325   1.347       .  A
N1321     Cu1329   2.085       .  S
N1322      C1323   1.345       .  A
N1322     Cu1328   2.074       .  S
C1323      C1324   1.384       .  A
C1323      H1326   1.082       .  S
C1324      C1325   1.386       .  A
C1324      C2404   1.491       .  S
C1325      H1327   1.082       .  S
Cu1328     N1331   2.073       .  S
Cu1329     N1339   2.085       .  S
Cu1330     N1332   2.076       .  S
Cu1330     N1338   2.077       .  S
N1331      N1332   1.321       .  A
N1331      C1335   1.343   1_455  A
N1332      C1333   1.347   1_455  A
C1333      C1334   1.387       .  A
C1333      H1336   1.082       .  S
C1334      C1335   1.385       .  A
C1334      C2978   1.493       .  S
C1335      H1337   1.082   1_655  S
N1338      N1339   1.323       .  A
N1338      C1342   1.345       .  A
N1339      C1340   1.348       .  A
C1340      C1341   1.388       .  A
C1340      H1343   1.082       .  S
C1341      C1342   1.384       .  A
C1341      C1785   1.494       .  S
C1342      H1344   1.082       .  S
N1345      N1346   1.322       .  A
N1345      C1349   1.347       .  A
N1345     Cu1353   2.078       .  S
N1346      C1347   1.343       .  A
N1346     Cu1352   2.070   1_545  S
C1347      C1348   1.383       .  A
C1347      H1350   1.082       .  S
C1348      C1349   1.387       .  A
C1348      C2068   1.489       .  S
C1349      H1351   1.082       .  S
Cu1352     N1355   2.069       .  S
Cu1353     N1363   2.078       .  S
Cu1354     N1356   2.066       .  S
Cu1354     N1362   2.066       .  S
N1355      N1356   1.321       .  A
N1355      C1359   1.344       .  A
N1356      C1357   1.344       .  A
C1357      C1358   1.383       .  A
C1357      H1360   1.082       .  S
C1358      C1359   1.384       .  A
C1358      C2642   1.485       .  S
C1359      H1361   1.082       .  S
N1362      N1363   1.323   1_565  A
N1362      C1366   1.344       .  A
N1363      C1364   1.345       .  A
C1364      C1365   1.384   1_545  A
C1364      H1367   1.082       .  S
C1365      C1366   1.382       .  A
C1365      C1771   1.484   1_655  S
C1366      H1368   1.082       .  S
N1369      N1370   1.322       .  A
N1369      C1373   1.347       .  A
N1369     Cu1377   2.077       .  S
N1370      C1371   1.343       .  A
N1370     Cu1376   2.072   1_545  S
C1371      C1372   1.384       .  A
C1371      H1374   1.082       .  S
C1372      C1373   1.386       .  A
C1372      C3034   1.490       .  S
C1373      H1375   1.082       .  S
Cu1376     N1379   2.072       .  S
Cu1377     N1387   2.077       .  S
Cu1378     N1380   2.077       .  S
Cu1378     N1386   2.078       .  S
N1379      N1380   1.322       .  A
N1379      C1383   1.344       .  A
N1380      C1381   1.347       .  A
C1381      C1382   1.385       .  A
C1381      H1384   1.082       .  S
C1382      C1383   1.383       .  A
C1382      C3090   1.487       .  S
C1383      H1385   1.082       .  S
N1386      N1387   1.323   1_565  A
N1386      C1390   1.346       .  A
N1387      C1388   1.345       .  A
C1388      C1389   1.384   1_545  A
C1388      H1391   1.082       .  S
C1389      C1390   1.385       .  A
C1389      C1757   1.490   1_655  S
C1390      H1392   1.082       .  S
N1393      N1394   1.322       .  A
N1393      C1397   1.345       .  A
N1393     Cu1401   2.075       .  S
N1394      C1395   1.347       .  A
N1394     Cu1400   2.082   1_554  S
C1395      C1396   1.385       .  A
C1395      H1398   1.082       .  S
C1396      C1397   1.383       .  A
C1396      C2233   1.488       .  S
C1397      H1399   1.082       .  S
Cu1400     N1403   2.081       .  S
Cu1401     N1411   2.076       .  S
Cu1402     N1404   2.086       .  S
Cu1402     N1410   2.086       .  S
N1403      N1404   1.323       .  A
N1403      C1407   1.345       .  A
N1404      C1405   1.348       .  A
C1405      C1406   1.386       .  A
C1405      H1408   1.082       .  S
C1406      C1407   1.384       .  A
C1406      C2807   1.490       .  S
C1407      H1409   1.082       .  S
N1410      N1411   1.322   1_556  A
N1410      C1414   1.347       .  A
N1411      C1412   1.346       .  A
C1412      C1413   1.385       .  A
C1412      H1415   1.082       .  S
C1413      C1414   1.387   1_554  A
C1413      C1743   1.494       .  S
C1414      H1416   1.082       .  S
N1417      N1418   1.321       .  A
N1417      C1421   1.345       .  A
N1417     Cu1425   2.071       .  S
N1418      C1419   1.343       .  A
N1418     Cu1424   2.068       .  S
C1419      C1420   1.384       .  A
C1419      H1422   1.082       .  S
C1420      C1421   1.385       .  A
C1420      C2695   1.489       .  S
C1421      H1423   1.082       .  S
Cu1424     N1427   2.069   1_554  S
Cu1425     N1435   2.071       .  S
Cu1426     N1428   2.073       .  S
Cu1426     N1434   2.073       .  S
N1427      N1428   1.322       .  A
N1427      C1431   1.344       .  A
N1428      C1429   1.345       .  A
C1429      C1430   1.384       .  A
C1429      H1432   1.082       .  S
C1430      C1431   1.384       .  A
C1430      C3202   1.487       .  S
C1431      H1433   1.082       .  S
N1434      N1435   1.322   1_556  A
N1434      C1438   1.345       .  A
N1435      C1436   1.344       .  A
C1436      C1437   1.384       .  A
C1436      H1439   1.082       .  S
C1437      C1438   1.384   1_554  A
C1437      C1729   1.487       .  S
C1438      H1440   1.082       .  S
N1441      N1442   1.321       .  A
N1441      C1445   1.345       .  A
N1441     Cu1449   2.074       .  S
N1442      C1443   1.344       .  A
N1442     Cu1448   2.062       .  S
C1443      C1444   1.382       .  A
C1443      H1446   1.082       .  S
C1444      C1445   1.384       .  A
C1444      C1914   1.484       .  S
C1445      H1447   1.082       .  S
Cu1448     N1451   2.063       .  S
Cu1449     N1459   2.074       .  S
Cu1450     N1452   2.093   1_455  S
Cu1450     N1458   2.093       .  S
N1451      N1452   1.323   1_455  A
N1451      C1455   1.342   1_455  A
N1452      C1453   1.348       .  A
C1453      C1454   1.389       .  A
C1453      H1456   1.082       .  S
C1454      C1455   1.381       .  A
C1454      C2110   1.491       .  S
C1455      H1457   1.082       .  S
N1458      N1459   1.324       .  A
N1458      C1462   1.349       .  A
N1459      C1460   1.344       .  A
C1460      C1461   1.382       .  A
C1460      H1463   1.082       .  S
C1461      C1462   1.388       .  A
C1461      C1788   1.492       .  S
C1462      H1464   1.082       .  S
N1465      N1466   1.322       .  A
N1465      C1469   1.347       .  A
N1465     Cu1473   2.084       .  S
N1466      C1467   1.347       .  A
N1466     Cu1472   2.086       .  S
C1467      C1468   1.388       .  A
C1467      H1470   1.082       .  S
C1468      C1469   1.388       .  A
C1468      C2362   1.499       .  S
C1469      H1471   1.082       .  S
Cu1472     N1475   2.086       .  S
Cu1473     N1483   2.085       .  S
Cu1474     N1476   2.082       .  S
Cu1474     N1482   2.082       .  S
N1475      N1476   1.322       .  A
N1475      C1479   1.345   1_455  A
N1476      C1477   1.349   1_455  A
C1477      C1478   1.388       .  A
C1477      H1480   1.082       .  S
C1478      C1479   1.386       .  A
C1478      C2600   1.496       .  S
C1479      H1481   1.082   1_655  S
N1482      N1483   1.323       .  A
N1482      C1486   1.345       .  A
N1483      C1484   1.348       .  A
C1484      C1485   1.386       .  A
C1484      H1487   1.082       .  S
C1485      C1486   1.384       .  A
C1485      C1802   1.492       .  S
C1486      H1488   1.082       .  S
N1489      N1490   1.320       .  A
N1489      C1493   1.342       .  A
N1489     Cu1497   2.058       .  S
N1490      C1491   1.344       .  A
N1490     Cu1496   2.063       .  S
C1491      C1492   1.382       .  A
C1491      H1494   1.082       .  S
C1492      C1493   1.381       .  A
C1492      C2278   1.479       .  S
C1493      H1495   1.082       .  S
Cu1496     N1499   2.063   1_565  S
Cu1497     N1507   2.059       .  S
Cu1498     N1500   2.080       .  S
Cu1498     N1506   2.080       .  S
N1499      N1500   1.322       .  A
N1499      C1503   1.341       .  A
N1500      C1501   1.348       .  A
C1501      C1502   1.386       .  A
C1501      H1504   1.082       .  S
C1502      C1503   1.380       .  A
C1502      C1942   1.485       .  S
C1503      H1505   1.082       .  S
N1506      N1507   1.323   1_545  A
N1506      C1510   1.344       .  A
N1507      C1508   1.343       .  A
C1508      C1509   1.381       .  A
C1508      H1511   1.082       .  S
C1509      C1510   1.385   1_565  A
C1509      C1774   1.485       .  S
C1510      H1512   1.082       .  S
N1513      N1514   1.321       .  A
N1513      C1517   1.345       .  A
N1513     Cu1521   2.068       .  S
N1514      C1515   1.342       .  A
N1514     Cu1520   2.062       .  S
C1515      C1516   1.380       .  A
C1515      H1518   1.082       .  S
C1516      C1517   1.383       .  A
C1516      C2768   1.480       .  S
C1517      H1519   1.082       .  S
Cu1520     N1523   2.062   1_565  S
Cu1521     N1531   2.068       .  S
Cu1522     N1524   2.079       .  S
Cu1522     N1530   2.080       .  S
N1523      N1524   1.322       .  A
N1523      C1527   1.343       .  A
N1524      C1525   1.346       .  A
C1525      C1526   1.386       .  A
C1525      H1528   1.082       .  S
C1526      C1527   1.381       .  A
C1526      C2527   1.485       .  S
C1527      H1529   1.082       .  S
N1530      N1531   1.323   1_545  A
N1530      C1534   1.345       .  A
N1531      C1532   1.344       .  A
C1532      C1533   1.382       .  A
C1532      H1535   1.082       .  S
C1533      C1534   1.385   1_565  A
C1533      C1760   1.487       .  S
C1534      H1536   1.082       .  S
N1537      N1538   1.322       .  A
N1537      C1541   1.347       .  A
N1537     Cu1545   2.082       .  S
N1538      C1539   1.343       .  A
N1538     Cu1544   2.067   1_556  S
C1539      C1540   1.383       .  A
C1539      H1542   1.082       .  S
C1540      C1541   1.387       .  A
C1540      C2446   1.489       .  S
C1541      H1543   1.082       .  S
Cu1544     N1547   2.067       .  S
Cu1545     N1555   2.083       .  S
Cu1546     N1548   2.088       .  S
Cu1546     N1554   2.089       .  S
N1547      N1548   1.322       .  A
N1547      C1551   1.344       .  A
N1548      C1549   1.347       .  A
C1549      C1550   1.388       .  A
C1549      H1552   1.082       .  S
C1550      C1551   1.383       .  A
C1550      C1995   1.492       .  S
C1551      H1553   1.082       .  S
N1554      N1555   1.323   1_554  A
N1554      C1558   1.347       .  A
N1555      C1556   1.347       .  A
C1556      C1557   1.386   1_556  A
C1556      H1559   1.082       .  S
C1557      C1558   1.387       .  A
C1557      C1746   1.495       .  S
C1558      H1560   1.082       .  S
N1561      N1562   1.322       .  A
N1561      C1565   1.348       .  A
N1561     Cu1569   2.084       .  S
N1562      C1563   1.343       .  A
N1562     Cu1568   2.068   1_556  S
C1563      C1564   1.382       .  A
C1563      H1566   1.082       .  S
C1564      C1565   1.387       .  A
C1564      C2936   1.490       .  S
C1565      H1567   1.082       .  S
Cu1568     N1571   2.068       .  S
Cu1569     N1579   2.085       .  S
Cu1570     N1572   2.078       .  S
Cu1570     N1578   2.079       .  S
N1571      N1572   1.321       .  A
N1571      C1575   1.342       .  A
N1572      C1573   1.348       .  A
C1573      C1574   1.387       .  A
C1573      H1576   1.082       .  S
C1574      C1575   1.383       .  A
C1574      C2194   1.490       .  S
C1575      H1577   1.082       .  S
N1578      N1579   1.324   1_554  A
N1578      C1582   1.345       .  A
N1579      C1580   1.346       .  A
C1580      C1581   1.384   1_556  A
C1580      H1583   1.082       .  S
C1581      C1582   1.383       .  A
C1581      C1732   1.488       .  S
C1582      H1584   1.082       .  S
N1585      N1586   1.321       .  A
N1585      C1589   1.345       .  A
N1585     Cu1593   2.066       .  S
N1586      C1587   1.342       .  A
N1586     Cu1592   2.063       .  S
C1587      C1588   1.381       .  A
C1587      H1590   1.082       .  S
C1588      C1589   1.382       .  A
C1588      C2754   1.479       .  S
C1589      H1591   1.082       .  S
Cu1592     N1595   2.062       .  S
Cu1593     N1603   2.066       .  S
Cu1594     N1596   2.067       .  S
Cu1594     N1602   2.067       .  S
N1595      N1596   1.321       .  A
N1595      C1599   1.342       .  A
N1596      C1597   1.344       .  A
C1597      C1598   1.384       .  A
C1597      H1600   1.082       .  S
C1598      C1599   1.382       .  A
C1598      C3174   1.484       .  S
C1599      H1601   1.082       .  S
N1602      N1603   1.322       .  A
N1602      C1606   1.343       .  A
N1603      C1604   1.343       .  A
C1604      C1605   1.382       .  A
C1604      H1607   1.082       .  S
C1605      C1606   1.383       .  A
C1605      C1830   1.483       .  S
C1606      H1608   1.082       .  S
N1609      N1610   1.322       .  A
N1609      C1613   1.347       .  A
N1609     Cu1617   2.077       .  S
N1610      C1611   1.344       .  A
N1610     Cu1616   2.076       .  S
C1611      C1612   1.385       .  A
C1611      H1614   1.082       .  S
C1612      C1613   1.386       .  A
C1612      C2908   1.491       .  S
C1613      H1615   1.082       .  S
Cu1616     N1619   2.076       .  S
Cu1617     N1627   2.077       .  S
Cu1618     N1620   2.070       .  S
Cu1618     N1626   2.071       .  S
N1619      N1620   1.322       .  A
N1619      C1623   1.345       .  A
N1620      C1621   1.345       .  A
C1621      C1622   1.382       .  A
C1621      H1624   1.082       .  S
C1622      C1623   1.384       .  A
C1622      C2502   1.485       .  S
C1623      H1625   1.082       .  S
N1626      N1627   1.322       .  A
N1626      C1630   1.346       .  A
N1627      C1628   1.344       .  A
C1628      C1629   1.385       .  A
C1628      H1631   1.082       .  S
C1629      C1630   1.385       .  A
C1629      C1886   1.490       .  S
C1630      H1632   1.082       .  S
N1633      N1634   1.322       .  A
N1633      C1637   1.346       .  A
N1633     Cu1641   2.074       .  S
N1634      C1635   1.344       .  A
N1634     Cu1640   2.068       .  S
C1635      C1636   1.382       .  A
C1635      H1638   1.082       .  S
C1636      C1637   1.383       .  A
C1636      C3118   1.484       .  S
C1637      H1639   1.082       .  S
Cu1640     N1643   2.069       .  S
Cu1641     N1651   2.075       .  S
Cu1642     N1644   2.089       .  S
Cu1642     N1650   2.089       .  S
N1643      N1644   1.323       .  A
N1643      C1647   1.344       .  A
N1644      C1645   1.348       .  A
C1645      C1646   1.386       .  A
C1645      H1648   1.082       .  S
C1646      C1647   1.381       .  A
C1646      C2922   1.487       .  S
C1647      H1649   1.082       .  S
N1650      N1651   1.323       .  A
N1650      C1654   1.348       .  A
N1651      C1652   1.345       .  A
C1652      C1653   1.382       .  A
C1652      H1655   1.082       .  S
C1653      C1654   1.386       .  A
C1653      C1816   1.489       .  S
C1654      H1656   1.082       .  S
N1657      N1658   1.321       .  A
N1657      C1661   1.347       .  A
N1657     Cu1665   2.080       .  S
N1658      C1659   1.341       .  A
N1658     Cu1664   2.059       .  S
C1659      C1660   1.382       .  A
C1659      H1662   1.082       .  S
C1660      C1661   1.389       .  A
C1660      C2572   1.490       .  S
C1661      H1663   1.082       .  S
Cu1664     N1667   2.060       .  S
Cu1665     N1675   2.081       .  S
Cu1666     N1668   2.071       .  S
Cu1666     N1674   2.071       .  S
N1667      N1668   1.321       .  A
N1667      C1671   1.342       .  A
N1668      C1669   1.346       .  A
C1669      C1670   1.384       .  A
C1669      H1672   1.082       .  S
C1670      C1671   1.380       .  A
C1670      C2166   1.481       .  S
C1671      H1673   1.082       .  S
N1674      N1675   1.324       .  A
N1674      C1678   1.344       .  A
N1675      C1676   1.345       .  A
C1676      C1677   1.384       .  A
C1676      H1679   1.082       .  S
C1677      C1678   1.383       .  A
C1677      C1872   1.486       .  S
C1678      H1680   1.082       .  S
N1681      N1682   1.323       .  A
N1681      C1685   1.348       .  A
N1681     Cu1689   2.085       .  S
N1682      C1683   1.344       .  A
N1682     Cu1688   2.075       .  S
C1683      C1684   1.383       .  A
C1683      H1686   1.082       .  S
C1684      C1685   1.386       .  A
C1684      C3076   1.489       .  S
C1685      H1687   1.082       .  S
Cu1688     N1691   2.075       .  S
Cu1689     N1699   2.085       .  S
Cu1690     N1692   2.077       .  S
Cu1690     N1698   2.077       .  S
N1691      N1692   1.321       .  A
N1691      C1695   1.344       .  A
N1692      C1693   1.347       .  A
C1693      C1694   1.386       .  A
C1693      H1696   1.082       .  S
C1694      C1695   1.385       .  A
C1694      C2586   1.491       .  S
C1695      H1697   1.082       .  S
N1698      N1699   1.324       .  A
N1698      C1702   1.345       .  A
N1699      C1700   1.347       .  A
C1700      C1701   1.386       .  A
C1700      H1703   1.082       .  S
C1701      C1702   1.383       .  A
C1701      C1844   1.489       .  S
C1702      H1704   1.082       .  S
N1705      N1706   1.321       .  A
N1705      C1709   1.348       .  A
N1705     Cu1713   2.085       .  S
N1706      C1707   1.344       .  A
N1706     Cu1712   2.072       .  S
C1707      C1708   1.385       .  A
C1707      H1710   1.082       .  S
C1708      C1709   1.388       .  A
C1708      C2334   1.494       .  S
C1709      H1711   1.082       .  S
Cu1712     N1715   2.072       .  S
Cu1713     N1723   2.086       .  S
Cu1714     N1716   2.078       .  S
Cu1714     N1722   2.079       .  S
N1715      N1716   1.322       .  A
N1715      C1719   1.342       .  A
N1716      C1717   1.348       .  A
C1717      C1718   1.386       .  A
C1717      H1720   1.082       .  S
C1718      C1719   1.383       .  A
C1718      C2740   1.489       .  S
C1719      H1721   1.082       .  S
N1722      N1723   1.324       .  A
N1722      C1726   1.345       .  A
N1723      C1724   1.347       .  A
C1724      C1725   1.387       .  A
C1724      H1727   1.082       .  S
C1725      C1726   1.385       .  A
C1725      C1858   1.493       .  S
C1726      H1728   1.082       .  S
C1729      C1730   1.414   1_554  A
C1729      C1734   1.414       .  A
C1730      C1731   1.412   1_565  A
C1730      C1735   1.451       .  S
C1731      C1732   1.414   1_556  A
C1731      C1738   1.451       .  S
C1732      C1733   1.414       .  A
C1733      C1734   1.411   1_545  A
C1733      C1736   1.451       .  S
C1734      C1737   1.452       .  S
C1735      N1742   1.157       .  T
C1736      N1741   1.157       .  T
C1737      N1739   1.157       .  T
C1738      N1740   1.157       .  T
C1743      C1744   1.414   1_554  A
C1743      C1748   1.415       .  A
C1744      C1745   1.414   1_565  A
C1744      C1749   1.451       .  S
C1745      C1746   1.415   1_556  A
C1745      C1752   1.451       .  S
C1746      C1747   1.415       .  A
C1747      C1748   1.414   1_545  A
C1747      C1750   1.451       .  S
C1748      C1751   1.451       .  S
C1749      N1756   1.157       .  T
C1750      N1755   1.157       .  T
C1751      N1753   1.157       .  T
C1752      N1754   1.157       .  T
C1757      C1758   1.415       .  A
C1757      C1762   1.415   1_565  A
C1758      C1759   1.412       .  A
C1758      C1763   1.451       .  S
C1759      C1760   1.414       .  A
C1759      C1766   1.452       .  S
C1760      C1761   1.412   1_565  A
C1761      C1762   1.411       .  A
C1761      C1764   1.452       .  S
C1762      C1765   1.451       .  S
C1763      N1770   1.157       .  T
C1764      N1769   1.157       .  T
C1765      N1767   1.157       .  T
C1766      N1768   1.157       .  T
C1771      C1772   1.413       .  A
C1771      C1776   1.412   1_565  A
C1772      C1773   1.410       .  A
C1772      C1777   1.451       .  S
C1773      C1774   1.414       .  A
C1773      C1780   1.452       .  S
C1774      C1775   1.413   1_565  A
C1775      C1776   1.409       .  A
C1775      C1778   1.451       .  S
C1776      C1779   1.451       .  S
C1777      N1784   1.157       .  T
C1778      N1783   1.157       .  T
C1779      N1781   1.157       .  T
C1780      N1782   1.157       .  T
C1785      C1786   1.416       .  A
C1785      C1790   1.415       .  A
C1786      C1787   1.414   1_556  A
C1786      C1791   1.451       .  S
C1787      C1788   1.413       .  A
C1787      C1794   1.451       .  S
C1788      C1789   1.414       .  A
C1789      C1790   1.412   1_554  A
C1789      C1792   1.452       .  S
C1790      C1793   1.451       .  S
C1791      N1798   1.157       .  T
C1792      N1797   1.157       .  T
C1793      N1795   1.157       .  T
C1794      N1796   1.157       .  T
C1799      C1800   1.416       .  A
C1799      C1804   1.414       .  A
C1800      C1801   1.414   1_556  A
C1800      C1805   1.451       .  S
C1801      C1802   1.414       .  A
C1801      C1808   1.451       .  S
C1802      C1803   1.414       .  A
C1803      C1804   1.412   1_554  A
C1803      C1806   1.451       .  S
C1804      C1807   1.451       .  S
C1805      N1812   1.157       .  T
C1806      N1811   1.157       .  T
C1807      N1809   1.157       .  T
C1808      N1810   1.157       .  T
C1813      C1814   1.414       .  A
C1813      C1818   1.413       .  A
C1814      C1815   1.414       .  A
C1814      C1819   1.451       .  S
C1815      C1816   1.413       .  A
C1815      C1822   1.451       .  S
C1816      C1817   1.413       .  A
C1817      C1818   1.412       .  A
C1817      C1820   1.451       .  S
C1818      C1821   1.451       .  S
C1819      N1826   1.157       .  T
C1820      N1825   1.157       .  T
C1821      N1823   1.157       .  T
C1822      N1824   1.157       .  T
C1827      C1828   1.413       .  A
C1827      C1832   1.413       .  A
C1828      C1829   1.408       .  A
C1828      C1833   1.452       .  S
C1829      C1830   1.414       .  A
C1829      C1836   1.452       .  S
C1830      C1831   1.413       .  A
C1831      C1832   1.409       .  A
C1831      C1834   1.452       .  S
C1832      C1835   1.452       .  S
C1833      N1840   1.157       .  T
C1834      N1839   1.157       .  T
C1835      N1837   1.157       .  T
C1836      N1838   1.157       .  T
C1841      C1842   1.414       .  A
C1841      C1846   1.415       .  A
C1842      C1843   1.413       .  A
C1842      C1847   1.451       .  S
C1843      C1844   1.413       .  A
C1843      C1850   1.451       .  S
C1844      C1845   1.413       .  A
C1845      C1846   1.412       .  A
C1845      C1848   1.451       .  S
C1846      C1849   1.451       .  S
C1847      N1854   1.157       .  T
C1848      N1853   1.157       .  T
C1849      N1851   1.157       .  T
C1850      N1852   1.157       .  T
C1855      C1856   1.415       .  A
C1855      C1860   1.416       .  A
C1856      C1857   1.412       .  A
C1856      C1861   1.452       .  S
C1857      C1858   1.416       .  A
C1857      C1864   1.451       .  S
C1858      C1859   1.415       .  A
C1859      C1860   1.412       .  A
C1859      C1862   1.451       .  S
C1860      C1863   1.452       .  S
C1861      N1868   1.157       .  T
C1862      N1867   1.157       .  T
C1863      N1865   1.157       .  T
C1864      N1866   1.157       .  T
C1869      C1870   1.414       .  A
C1869      C1874   1.413       .  A
C1870      C1871   1.410       .  A
C1870      C1875   1.451       .  S
C1871      C1872   1.412       .  A
C1871      C1878   1.451       .  S
C1872      C1873   1.415       .  A
C1873      C1874   1.411       .  A
C1873      C1876   1.451       .  S
C1874      C1877   1.452       .  S
C1875      N1882   1.157       .  T
C1876      N1881   1.157       .  T
C1877      N1879   1.157       .  T
C1878      N1880   1.157       .  T
C1883      C1884   1.416       .  A
C1883      C1888   1.416       .  A
C1884      C1885   1.413       .  A
C1884      C1889   1.451       .  S
C1885      C1886   1.413       .  A
C1885      C1892   1.451       .  S
C1886      C1887   1.414       .  A
C1887      C1888   1.412       .  A
C1887      C1890   1.452       .  S
C1888      C1891   1.451       .  S
C1889      N1896   1.157       .  T
C1890      N1895   1.157       .  T
C1891      N1893   1.157       .  T
C1892      N1894   1.157       .  T
C1897      C1898   1.414       .  A
C1897      C1902   1.414       .  A
C1898      C1899   1.408       .  A
C1898      C1903   1.451       .  S
C1899      C1900   1.410       .  A
C1899      C1906   1.452       .  S
C1900      C1901   1.410       .  A
C1901      C1902   1.411       .  A
C1901      C1904   1.451       .  S
C1902      C1905   1.451       .  S
C1903      N1910   1.157       .  T
C1904      N1909   1.157       .  T
C1905      N1907   1.157       .  T
C1906      N1908   1.157       .  T
C1911      C1912   1.414       .  A
C1911      C1916   1.414       .  A
C1912      C1913   1.411       .  A
C1912      C1917   1.451       .  S
C1913      C1914   1.412       .  A
C1913      C1920   1.451       .  S
C1914      C1915   1.412       .  A
C1915      C1916   1.411       .  A
C1915      C1918   1.451       .  S
C1916      C1919   1.451       .  S
C1917      N1924   1.157       .  T
C1918      N1923   1.157       .  T
C1919      N1921   1.157       .  T
C1920      N1922   1.157       .  T
C1925      C1926   1.414       .  A
C1925      C1930   1.413       .  A
C1926      C1927   1.411       .  A
C1926      C1931   1.451       .  S
C1927      C1928   1.414       .  A
C1927      C1934   1.451       .  S
C1928      C1929   1.415       .  A
C1929      C1930   1.411       .  A
C1929      C1932   1.451       .  S
C1930      C1933   1.452       .  S
C1931      N1938   1.157       .  T
C1932      N1937   1.157       .  T
C1933      N1935   1.157       .  T
C1934      N1936   1.157       .  T
C1939      C1940   1.415       .  A
C1939      C1944   1.412       .  A
C1940      C1941   1.413       .  A
C1940      C1945   1.451       .  S
C1941      C1942   1.413       .  A
C1941      C1948   1.451       .  S
C1942      C1943   1.413       .  A
C1943      C1944   1.408       .  A
C1943      C1946   1.451       .  S
C1944      C1947   1.451       .  S
C1945      N1952   1.157       .  T
C1946      N1951   1.157       .  T
C1947      N1949   1.157       .  T
C1948      N1950   1.157       .  T
C1953      C1954   1.414       .  A
C1953      C1958   1.414       .  A
C1954      C1955   1.407       .  A
C1954      C1959   1.452       .  S
C1955      C1956   1.412       .  A
C1955      C1962   1.452       .  S
C1956      C1957   1.412       .  A
C1957      C1958   1.410       .  A
C1957      C1960   1.451       .  S
C1958      C1961   1.451       .  S
C1959      N1966   1.157       .  T
C1960      N1965   1.157       .  T
C1961      N1963   1.157       .  T
C1962      N1964   1.157       .  T
C1967      C1968   1.412       .  A
C1967      C1972   1.412       .  A
C1968      C1969   1.412       .  A
C1968      C1973   1.451       .  S
C1969      C1970   1.414       .  A
C1969      C1976   1.450       .  S
C1970      C1971   1.414       .  A
C1971      C1972   1.409       .  A
C1971      C1974   1.451       .  S
C1972      C1975   1.452       .  S
C1973      N1980   1.157       .  T
C1974      N1979   1.157       .  T
C1975      N1977   1.157       .  T
C1976      N1978   1.157       .  T
C1981      C1982   1.414       .  A
C1981      C1986   1.413       .  A
C1982      C1983   1.410       .  A
C1982      C1987   1.452       .  S
C1983      C1984   1.415       .  A
C1983      C1990   1.452       .  S
C1984      C1985   1.415       .  A
C1985      C1986   1.413       .  A
C1985      C1988   1.451       .  S
C1986      C1989   1.451       .  S
C1987      N1994   1.157       .  T
C1988      N1993   1.157       .  T
C1989      N1991   1.157       .  T
C1990      N1992   1.157       .  T
C1995      C1996   1.415       .  A
C1995      C2000   1.415       .  A
C1996      C1997   1.412       .  A
C1996      C2001   1.451       .  S
C1997      C1998   1.414       .  A
C1997      C2004   1.452       .  S
C1998      C1999   1.414       .  A
C1999      C2000   1.413       .  A
C1999      C2002   1.451       .  S
C2000      C2003   1.451       .  S
C2001      N2008   1.157       .  T
C2002      N2007   1.157       .  T
C2003      N2005   1.157       .  T
C2004      N2006   1.157       .  T
C2009      C2010   1.413       .  A
C2009      C2014   1.413       .  A
C2010      C2011   1.413       .  A
C2010      C2015   1.451       .  S
C2011      C2012   1.414       .  A
C2011      C2018   1.451       .  S
C2012      C2013   1.415       .  A
C2013      C2014   1.410       .  A
C2013      C2016   1.451       .  S
C2014      C2017   1.451       .  S
C2015      N2022   1.157       .  T
C2016      N2021   1.157       .  T
C2017      N2019   1.157       .  T
C2018      N2020   1.157       .  T
C2023      C2024   1.414       .  A
C2023      C2028   1.413       .  A
C2024      C2025   1.412       .  A
C2024      C2029   1.451       .  S
C2025      C2026   1.414       .  A
C2025      C2032   1.451       .  S
C2026      C2027   1.415       .  A
C2027      C2028   1.410       .  A
C2027      C2030   1.452       .  S
C2028      C2031   1.452       .  S
C2029      N2036   1.157       .  T
C2030      N2035   1.157       .  T
C2031      N2033   1.157       .  T
C2032      N2034   1.157       .  T
C2037      C2038   1.416       .  A
C2037      C2042   1.414       .  A
C2038      C2039   1.410       .  A
C2038      C2043   1.452       .  S
C2039      C2040   1.413       .  A
C2039      C2046   1.452       .  S
C2040      C2041   1.413       .  A
C2041      C2042   1.414       .  A
C2041      C2044   1.451       .  S
C2042      C2045   1.451       .  S
C2043      N2050   1.157       .  T
C2044      N2049   1.157       .  T
C2045      N2047   1.157       .  T
C2046      N2048   1.157       .  T
C2051      C2052   1.414       .  A
C2051      C2056   1.412       .  A
C2052      C2053   1.410       .  A
C2052      C2057   1.452       .  S
C2053      C2054   1.415       .  A
C2053      C2060   1.452       .  S
C2054      C2055   1.416       .  A
C2055      C2056   1.413       .  A
C2055      C2058   1.451       .  S
C2056      C2059   1.451       .  S
C2057      N2064   1.157       .  T
C2058      N2063   1.157       .  T
C2059      N2061   1.157       .  T
C2060      N2062   1.157       .  T
C2065      C2066   1.413       .  A
C2065      C2070   1.414       .  A
C2066      C2067   1.411       .  A
C2066      C2071   1.451       .  S
C2067      C2068   1.414       .  A
C2067      C2074   1.452       .  S
C2068      C2069   1.414       .  A
C2069      C2070   1.413       .  A
C2069      C2072   1.451       .  S
C2070      C2073   1.451       .  S
C2071      N2078   1.157       .  T
C2072      N2077   1.157       .  T
C2073      N2075   1.157       .  T
C2074      N2076   1.157       .  T
C2079      C2080   1.415       .  A
C2079      C2084   1.415       .  A
C2080      C2081   1.416       .  A
C2080      C2085   1.450       .  S
C2081      C2082   1.414       .  A
C2081      C2088   1.451       .  S
C2082      C2083   1.415       .  A
C2083      C2084   1.413       .  A
C2083      C2086   1.451       .  S
C2084      C2087   1.451       .  S
C2085      N2092   1.157       .  T
C2086      N2091   1.157       .  T
C2087      N2089   1.157       .  T
C2088      N2090   1.157       .  T
C2093      C2094   1.416       .  A
C2093      C2098   1.416       .  A
C2094      C2095   1.413       .  A
C2094      C2099   1.451       .  S
C2095      C2096   1.414       .  A
C2095      C2102   1.452       .  S
C2096      C2097   1.415       .  A
C2097      C2098   1.414       .  A
C2097      C2100   1.451       .  S
C2098      C2101   1.451       .  S
C2099      N2106   1.157       .  T
C2100      N2105   1.157       .  T
C2101      N2103   1.157       .  T
C2102      N2104   1.157       .  T
C2107      C2108   1.415       .  A
C2107      C2112   1.416       .  A
C2108      C2109   1.412       .  A
C2108      C2113   1.452       .  S
C2109      C2110   1.416       .  A
C2109      C2116   1.452       .  S
C2110      C2111   1.413       .  A
C2111      C2112   1.413       .  A
C2111      C2114   1.451       .  S
C2112      C2115   1.451       .  S
C2113      N2120   1.157       .  T
C2114      N2119   1.157       .  T
C2115      N2117   1.157       .  T
C2116      N2118   1.157       .  T
C2121      C2122   1.416       .  A
C2121      C2126   1.415       .  A
C2122      C2123   1.412       .  A
C2122      C2127   1.452       .  S
C2123      C2124   1.416       .  A
C2123      C2130   1.451       .  S
C2124      C2125   1.418       .  A
C2125      C2126   1.416       .  A
C2125      C2128   1.451       .  S
C2126      C2129   1.451       .  S
C2127      N2134   1.157       .  T
C2128      N2133   1.157       .  T
C2129      N2131   1.157       .  T
C2130      N2132   1.157       .  T
C2135      C2136   1.414       .  A
C2135      C2140   1.415       .  A
C2136      C2137   1.414       .  A
C2136      C2141   1.451       .  S
C2137      C2138   1.416       .  A
C2137      C2144   1.451       .  S
C2138      C2139   1.415       .  A
C2139      C2140   1.414       .  A
C2139      C2142   1.451       .  S
C2140      C2143   1.451       .  S
C2141      N2148   1.157       .  T
C2142      N2147   1.157       .  T
C2143      N2145   1.157       .  T
C2144      N2146   1.157       .  T
C2149      C2150   1.417       .  A
C2149      C2154   1.418       .  A
C2150      C2151   1.415       .  A
C2150      C2155   1.451       .  S
C2151      C2152   1.413       .  A
C2151      C2158   1.451       .  S
C2152      C2153   1.413       .  A
C2153      C2154   1.412       .  A
C2153      C2156   1.452       .  S
C2154      C2157   1.451       .  S
C2155      N2162   1.157       .  T
C2156      N2161   1.157       .  T
C2157      N2159   1.157       .  T
C2158      N2160   1.157       .  T
C2163      C2164   1.417       .  A
C2163      C2168   1.416       .  A
C2164      C2165   1.409       .  A
C2164      C2169   1.451       .  S
C2165      C2166   1.411       .  A
C2165      C2172   1.452       .  S
C2166      C2167   1.411       .  A
C2167      C2168   1.412       .  A
C2167      C2170   1.452       .  S
C2168      C2171   1.451       .  S
C2169      N2176   1.157       .  T
C2170      N2175   1.157       .  T
C2171      N2173   1.157       .  T
C2172      N2174   1.157       .  T
C2177      C2178   1.414       .  A
C2177      C2182   1.415       .  A
C2178      C2179   1.414       .  A
C2178      C2183   1.451       .  S
C2179      C2180   1.416       .  A
C2179      C2186   1.450       .  S
C2180      C2181   1.416       .  A
C2181      C2182   1.411       .  A
C2181      C2184   1.452       .  S
C2182      C2185   1.452       .  S
C2183      N2190   1.157       .  T
C2184      N2189   1.157       .  T
C2185      N2187   1.157       .  T
C2186      N2188   1.157       .  T
C2191      C2192   1.416       .  A
C2191      C2196   1.415       .  A
C2192      C2193   1.415       .  A
C2192      C2197   1.450       .  S
C2193      C2194   1.413       .  A
C2193      C2200   1.451       .  S
C2194      C2195   1.413       .  A
C2195      C2196   1.410       .  A
C2195      C2198   1.452       .  S
C2196      C2199   1.451       .  S
C2197      N2204   1.157       .  T
C2198      N2203   1.157       .  T
C2199      N2201   1.157       .  T
C2200      N2202   1.157       .  T
C2205      C2206   1.413       .  A
C2205      C2210   1.414       .  A
C2206      C2207   1.412       .  A
C2206      C2211   1.451       .  S
C2207      C2208   1.414       .  A
C2207      C2214   1.450       .  S
C2208      C2209   1.415       .  A
C2209      C2210   1.412       .  A
C2209      C2212   1.452       .  S
C2210      C2213   1.452       .  S
C2211      N2218   1.157       .  T
C2212      N2217   1.157       .  T
C2213      N2215   1.157       .  T
C2214      N2216   1.157       .  T
C2219      C2220   1.413       .  A
C2219      C2224   1.414       .  A
C2220      C2221   1.414       .  A
C2220      C2225   1.451       .  S
C2221      C2222   1.415       .  A
C2221      C2228   1.450       .  S
C2222      C2223   1.415       .  A
C2223      C2224   1.409       .  A
C2223      C2226   1.452       .  S
C2224      C2227   1.452       .  S
C2225      N2232   1.157       .  T
C2226      N2231   1.157       .  T
C2227      N2229   1.157       .  T
C2228      N2230   1.157       .  T
C2233      C2234   1.413       .  A
C2233      C2238   1.413       .  A
C2234      C2235   1.413       .  A
C2234      C2239   1.451       .  S
C2235      C2236   1.414       .  A
C2235      C2242   1.451       .  S
C2236      C2237   1.413       .  A
C2237      C2238   1.412       .  A
C2237      C2240   1.451       .  S
C2238      C2241   1.451       .  S
C2239      N2246   1.157       .  T
C2240      N2245   1.157       .  T
C2241      N2243   1.157       .  T
C2242      N2244   1.157       .  T
C2247      C2248   1.413       .  A
C2247      C2252   1.414       .  A
C2248      C2249   1.407       .  A
C2248      C2253   1.452       .  S
C2249      C2250   1.411       .  A
C2249      C2256   1.452       .  S
C2250      C2251   1.412       .  A
C2251      C2252   1.410       .  A
C2251      C2254   1.451       .  S
C2252      C2255   1.451       .  S
C2253      N2260   1.157       .  T
C2254      N2259   1.157       .  T
C2255      N2257   1.157       .  T
C2256      N2258   1.157       .  T
C2261      C2262   1.413       .  A
C2261      C2266   1.414       .  A
C2262      C2263   1.412       .  A
C2262      C2267   1.451       .  S
C2263      C2264   1.414       .  A
C2263      C2270   1.450       .  S
C2264      C2265   1.415       .  A
C2265      C2266   1.411       .  A
C2265      C2268   1.452       .  S
C2266      C2269   1.452       .  S
C2267      N2274   1.157       .  T
C2268      N2273   1.157       .  T
C2269      N2271   1.157       .  T
C2270      N2272   1.157       .  T
C2275      C2276   1.411       .  A
C2275      C2280   1.412       .  A
C2276      C2277   1.408       .  A
C2276      C2281   1.451       .  S
C2277      C2278   1.413       .  A
C2277      C2284   1.452       .  S
C2278      C2279   1.412       .  A
C2279      C2280   1.409       .  A
C2279      C2282   1.451       .  S
C2280      C2283   1.451       .  S
C2281      N2288   1.157       .  T
C2282      N2287   1.157       .  T
C2283      N2285   1.157       .  T
C2284      N2286   1.157       .  T
C2289      C2290   1.413       .  A
C2289      C2294   1.414       .  A
C2290      C2291   1.411       .  A
C2290      C2295   1.452       .  S
C2291      C2292   1.415       .  A
C2291      C2298   1.451       .  S
C2292      C2293   1.414       .  A
C2293      C2294   1.408       .  A
C2293      C2296   1.452       .  S
C2294      C2297   1.452       .  S
C2295      N2302   1.157       .  T
C2296      N2301   1.157       .  T
C2297      N2299   1.157       .  T
C2298      N2300   1.157       .  T
C2303      C2304   1.414       .  A
C2303      C2308   1.415       .  A
C2304      C2305   1.412       .  A
C2304      C2309   1.451       .  S
C2305      C2306   1.412       .  A
C2305      C2312   1.451       .  S
C2306      C2307   1.411       .  A
C2307      C2308   1.408       .  A
C2307      C2310   1.452       .  S
C2308      C2311   1.452       .  S
C2309      N2316   1.157       .  T
C2310      N2315   1.157       .  T
C2311      N2313   1.157       .  T
C2312      N2314   1.157       .  T
C2317      C2318   1.413       .  A
C2317      C2322   1.415       .  A
C2318      C2319   1.411       .  A
C2318      C2323   1.451       .  S
C2319      C2320   1.413       .  A
C2319      C2326   1.451       .  S
C2320      C2321   1.413       .  A
C2321      C2322   1.412       .  A
C2321      C2324   1.452       .  S
C2322      C2325   1.451       .  S
C2323      N2330   1.157       .  T
C2324      N2329   1.157       .  T
C2325      N2327   1.157       .  T
C2326      N2328   1.157       .  T
C2331      C2332   1.415       .  A
C2331      C2336   1.415       .  A
C2332      C2333   1.415       .  A
C2332      C2337   1.451       .  S
C2333      C2334   1.415       .  A
C2333      C2340   1.451       .  S
C2334      C2335   1.415       .  A
C2335      C2336   1.411       .  A
C2335      C2338   1.451       .  S
C2336      C2339   1.452       .  S
C2337      N2344   1.157       .  T
C2338      N2343   1.157       .  T
C2339      N2341   1.157       .  T
C2340      N2342   1.157       .  T
C2345      C2346   1.414       .  A
C2345      C2350   1.414       .  A
C2346      C2347   1.411       .  A
C2346      C2351   1.451       .  S
C2347      C2348   1.413       .  A
C2347      C2354   1.451       .  S
C2348      C2349   1.413       .  A
C2349      C2350   1.410       .  A
C2349      C2352   1.451       .  S
C2350      C2353   1.451       .  S
C2351      N2358   1.157       .  T
C2352      N2357   1.157       .  T
C2353      N2355   1.157       .  T
C2354      N2356   1.157       .  T
C2359      C2360   1.415       .  A
C2359      C2364   1.415       .  A
C2360      C2361   1.415       .  A
C2360      C2365   1.451       .  S
C2361      C2362   1.417       .  A
C2361      C2368   1.451       .  S
C2362      C2363   1.416       .  A
C2363      C2364   1.413       .  A
C2363      C2366   1.451       .  S
C2364      C2367   1.452       .  S
C2365      N2372   1.157       .  T
C2366      N2371   1.157       .  T
C2367      N2369   1.157       .  T
C2368      N2370   1.157       .  T
C2373      C2374   1.414       .  A
C2373      C2378   1.415       .  A
C2374      C2375   1.414       .  A
C2374      C2379   1.451       .  S
C2375      C2376   1.417       .  A
C2375      C2382   1.451       .  S
C2376      C2377   1.416       .  A
C2377      C2378   1.412       .  A
C2377      C2380   1.451       .  S
C2378      C2381   1.452       .  S
C2379      N2386   1.157       .  T
C2380      N2385   1.157       .  T
C2381      N2383   1.157       .  T
C2382      N2384   1.157       .  T
C2387      C2388   1.416       .  A
C2387      C2392   1.415       .  A
C2388      C2389   1.412       .  A
C2388      C2393   1.451       .  S
C2389      C2390   1.411       .  A
C2389      C2396   1.451       .  S
C2390      C2391   1.413       .  A
C2391      C2392   1.410       .  A
C2391      C2394   1.452       .  S
C2392      C2395   1.451       .  S
C2393      N2400   1.157       .  T
C2394      N2399   1.157       .  T
C2395      N2397   1.157       .  T
C2396      N2398   1.157       .  T
C2401      C2402   1.413       .  A
C2401      C2406   1.414       .  A
C2402      C2403   1.412       .  A
C2402      C2407   1.451       .  S
C2403      C2404   1.415       .  A
C2403      C2410   1.451       .  S
C2404      C2405   1.414       .  A
C2405      C2406   1.413       .  A
C2405      C2408   1.451       .  S
C2406      C2409   1.451       .  S
C2407      N2414   1.157       .  T
C2408      N2413   1.157       .  T
C2409      N2411   1.157       .  T
C2410      N2412   1.157       .  T
C2415      C2416   1.414       .  A
C2415      C2420   1.416       .  A
C2416      C2417   1.411       .  A
C2416      C2421   1.451       .  S
C2417      C2418   1.412       .  A
C2417      C2424   1.451       .  S
C2418      C2419   1.412       .  A
C2419      C2420   1.412       .  A
C2419      C2422   1.451       .  S
C2420      C2423   1.451       .  S
C2421      N2428   1.157       .  T
C2422      N2427   1.157       .  T
C2423      N2425   1.157       .  T
C2424      N2426   1.157       .  T
C2429      C2430   1.414       .  A
C2429      C2434   1.415       .  A
C2430      C2431   1.411       .  A
C2430      C2435   1.451       .  S
C2431      C2432   1.415       .  A
C2431      C2438   1.451       .  S
C2432      C2433   1.414       .  A
C2433      C2434   1.413       .  A
C2433      C2436   1.451       .  S
C2434      C2437   1.451       .  S
C2435      N2442   1.157       .  T
C2436      N2441   1.157       .  T
C2437      N2439   1.157       .  T
C2438      N2440   1.157       .  T
C2443      C2444   1.413       .  A
C2443      C2448   1.412       .  A
C2444      C2445   1.412       .  A
C2444      C2449   1.451       .  S
C2445      C2446   1.414       .  A
C2445      C2452   1.451       .  S
C2446      C2447   1.415       .  A
C2447      C2448   1.411       .  A
C2447      C2450   1.451       .  S
C2448      C2451   1.452       .  S
C2449      N2456   1.157       .  T
C2450      N2455   1.157       .  T
C2451      N2453   1.157       .  T
C2452      N2454   1.157       .  T
C2457      C2458   1.415       .  A
C2457      C2462   1.414       .  A
C2458      C2459   1.413       .  A
C2458      C2463   1.451       .  S
C2459      C2460   1.415       .  A
C2459      C2466   1.451       .  S
C2460      C2461   1.416       .  A
C2461      C2462   1.412       .  A
C2461      C2464   1.451       .  S
C2462      C2465   1.452       .  S
C2463      N2470   1.157       .  T
C2464      N2469   1.157       .  T
C2465      N2467   1.157       .  T
C2466      N2468   1.157       .  T
C2471      C2472   1.412       .  A
C2471      C2476   1.412       .  A
C2472      C2473   1.411       .  A
C2472      C2477   1.452       .  S
C2473      C2474   1.416       .  A
C2473      C2480   1.451       .  S
C2474      C2475   1.416       .  A
C2475      C2476   1.411       .  A
C2475      C2478   1.452       .  S
C2476      C2479   1.452       .  S
C2477      N2484   1.157       .  T
C2478      N2483   1.157       .  T
C2479      N2481   1.157       .  T
C2480      N2482   1.157       .  T
C2485      C2486   1.414       .  A
C2485      C2490   1.413       .  A
C2486      C2487   1.413       .  A
C2486      C2491   1.451       .  S
C2487      C2488   1.415       .  A
C2487      C2494   1.451       .  S
C2488      C2489   1.417       .  A
C2489      C2490   1.411       .  A
C2489      C2492   1.452       .  S
C2490      C2493   1.452       .  S
C2491      N2498   1.157       .  T
C2492      N2497   1.157       .  T
C2493      N2495   1.157       .  T
C2494      N2496   1.157       .  T
C2499      C2500   1.413       .  A
C2499      C2504   1.415       .  A
C2500      C2501   1.411       .  A
C2500      C2505   1.451       .  S
C2501      C2502   1.414       .  A
C2501      C2508   1.451       .  S
C2502      C2503   1.412       .  A
C2503      C2504   1.410       .  A
C2503      C2506   1.451       .  S
C2504      C2507   1.452       .  S
C2505      N2512   1.157       .  T
C2506      N2511   1.157       .  T
C2507      N2509   1.157       .  T
C2508      N2510   1.157       .  T
C2513      C2514   1.414       .  A
C2513      C2518   1.412       .  A
C2514      C2515   1.411       .  A
C2514      C2519   1.451       .  S
C2515      C2516   1.414       .  A
C2515      C2522   1.451       .  S
C2516      C2517   1.416       .  A
C2517      C2518   1.412       .  A
C2517      C2520   1.451       .  S
C2518      C2521   1.451       .  S
C2519      N2526   1.157       .  T
C2520      N2525   1.157       .  T
C2521      N2523   1.157       .  T
C2522      N2524   1.157       .  T
C2527      C2528   1.413       .  A
C2527      C2532   1.413       .  A
C2528      C2529   1.411       .  A
C2528      C2533   1.451       .  S
C2529      C2530   1.413       .  A
C2529      C2536   1.451       .  S
C2530      C2531   1.413       .  A
C2531      C2532   1.410       .  A
C2531      C2534   1.451       .  S
C2532      C2535   1.451       .  S
C2533      N2540   1.157       .  T
C2534      N2539   1.157       .  T
C2535      N2537   1.157       .  T
C2536      N2538   1.157       .  T
C2541      C2542   1.414       .  A
C2541      C2546   1.414       .  A
C2542      C2543   1.412       .  A
C2542      C2547   1.451       .  S
C2543      C2544   1.415       .  A
C2543      C2550   1.452       .  S
C2544      C2545   1.415       .  A
C2545      C2546   1.413       .  A
C2545      C2548   1.451       .  S
C2546      C2549   1.451       .  S
C2547      N2554   1.157       .  T
C2548      N2553   1.157       .  T
C2549      N2551   1.157       .  T
C2550      N2552   1.157       .  T
C2555      C2556   1.415       .  A
C2555      C2560   1.415       .  A
C2556      C2557   1.409       .  A
C2556      C2561   1.452       .  S
C2557      C2558   1.416       .  A
C2557      C2564   1.452       .  S
C2558      C2559   1.416       .  A
C2559      C2560   1.415       .  A
C2559      C2562   1.451       .  S
C2560      C2563   1.451       .  S
C2561      N2568   1.157       .  T
C2562      N2567   1.157       .  T
C2563      N2565   1.157       .  T
C2564      N2566   1.157       .  T
C2569      C2570   1.412       .  A
C2569      C2574   1.411       .  A
C2570      C2571   1.412       .  A
C2570      C2575   1.451       .  S
C2571      C2572   1.416       .  A
C2571      C2578   1.451       .  S
C2572      C2573   1.416       .  A
C2573      C2574   1.410       .  A
C2573      C2576   1.452       .  S
C2574      C2577   1.452       .  S
C2575      N2582   1.157       .  T
C2576      N2581   1.157       .  T
C2577      N2579   1.157       .  T
C2578      N2580   1.157       .  T
C2583      C2584   1.413       .  A
C2583      C2588   1.413       .  A
C2584      C2585   1.410       .  A
C2584      C2589   1.452       .  S
C2585      C2586   1.414       .  A
C2585      C2592   1.451       .  S
C2586      C2587   1.415       .  A
C2587      C2588   1.415       .  A
C2587      C2590   1.451       .  S
C2588      C2591   1.451       .  S
C2589      N2596   1.157       .  T
C2590      N2595   1.157       .  T
C2591      N2593   1.157       .  T
C2592      N2594   1.157       .  T
C2597      C2598   1.415       .  A
C2597      C2602   1.417       .  A
C2598      C2599   1.414       .  A
C2598      C2603   1.451       .  S
C2599      C2600   1.414       .  A
C2599      C2606   1.451       .  S
C2600      C2601   1.414       .  A
C2601      C2602   1.415       .  A
C2601      C2604   1.451       .  S
C2602      C2605   1.451       .  S
C2603      N2610   1.157       .  T
C2604      N2609   1.157       .  T
C2605      N2607   1.157       .  T
C2606      N2608   1.157       .  T
C2611      C2612   1.412       .  A
C2611      C2616   1.414       .  A
C2612      C2613   1.414       .  A
C2612      C2617   1.451       .  S
C2613      C2614   1.416       .  A
C2613      C2620   1.450       .  S
C2614      C2615   1.416       .  A
C2615      C2616   1.412       .  A
C2615      C2618   1.452       .  S
C2616      C2619   1.451       .  S
C2617      N2624   1.157       .  T
C2618      N2623   1.157       .  T
C2619      N2621   1.157       .  T
C2620      N2622   1.157       .  T
C2625      C2626   1.416       .  A
C2625      C2630   1.415       .  A
C2626      C2627   1.410       .  A
C2626      C2631   1.452       .  S
C2627      C2628   1.414       .  A
C2627      C2634   1.452       .  S
C2628      C2629   1.414       .  A
C2629      C2630   1.414       .  A
C2629      C2632   1.451       .  S
C2630      C2633   1.451       .  S
C2631      N2638   1.157       .  T
C2632      N2637   1.157       .  T
C2633      N2635   1.157       .  T
C2634      N2636   1.157       .  T
C2639      C2640   1.412       .  A
C2639      C2644   1.411       .  A
C2640      C2641   1.410       .  A
C2640      C2645   1.451       .  S
C2641      C2642   1.414       .  A
C2641      C2648   1.451       .  S
C2642      C2643   1.414       .  A
C2643      C2644   1.411       .  A
C2643      C2646   1.451       .  S
C2644      C2647   1.451       .  S
C2645      N2652   1.157       .  T
C2646      N2651   1.157       .  T
C2647      N2649   1.157       .  T
C2648      N2650   1.157       .  T
C2653      C2654   1.416       .  A
C2653      C2658   1.415       .  A
C2654      C2655   1.414       .  A
C2654      C2659   1.451       .  S
C2655      C2656   1.414       .  A
C2655      C2662   1.451       .  S
C2656      C2657   1.414       .  A
C2657      C2658   1.413       .  A
C2657      C2660   1.451       .  S
C2658      C2661   1.451       .  S
C2659      N2666   1.157       .  T
C2660      N2665   1.157       .  T
C2661      N2663   1.157       .  T
C2662      N2664   1.157       .  T
C2667      C2668   1.414       .  A
C2667      C2672   1.414       .  A
C2668      C2669   1.411       .  A
C2668      C2673   1.451       .  S
C2669      C2670   1.415       .  A
C2669      C2676   1.452       .  S
C2670      C2671   1.413       .  A
C2671      C2672   1.410       .  A
C2671      C2674   1.452       .  S
C2672      C2675   1.451       .  S
C2673      N2680   1.157       .  T
C2674      N2679   1.157       .  T
C2675      N2677   1.157       .  T
C2676      N2678   1.157       .  T
C2681      C2682   1.412       .  A
C2681      C2686   1.412       .  A
C2682      C2683   1.413       .  A
C2682      C2687   1.451       .  S
C2683      C2684   1.417       .  A
C2683      C2690   1.451       .  S
C2684      C2685   1.416       .  A
C2685      C2686   1.412       .  A
C2685      C2688   1.451       .  S
C2686      C2689   1.451       .  S
C2687      N2694   1.157       .  T
C2688      N2693   1.157       .  T
C2689      N2691   1.157       .  T
C2690      N2692   1.158       .  T
C2695      C2696   1.415       .  A
C2695      C2700   1.415       .  A
C2696      C2697   1.412       .  A
C2696      C2701   1.451       .  S
C2697      C2698   1.412       .  A
C2697      C2704   1.451       .  S
C2698      C2699   1.413       .  A
C2699      C2700   1.410       .  A
C2699      C2702   1.452       .  S
C2700      C2703   1.452       .  S
C2701      N2708   1.157       .  T
C2702      N2707   1.157       .  T
C2703      N2705   1.157       .  T
C2704      N2706   1.157       .  T
C2709      C2710   1.415       .  A
C2709      C2714   1.415       .  A
C2710      C2711   1.414       .  A
C2710      C2715   1.451       .  S
C2711      C2712   1.416       .  A
C2711      C2718   1.451       .  S
C2712      C2713   1.414       .  A
C2713      C2714   1.413       .  A
C2713      C2716   1.451       .  S
C2714      C2717   1.451       .  S
C2715      N2722   1.157       .  T
C2716      N2721   1.157       .  T
C2717      N2719   1.157       .  T
C2718      N2720   1.157       .  T
C2723      C2724   1.416       .  A
C2723      C2728   1.416       .  A
C2724      C2725   1.414       .  A
C2724      C2729   1.451       .  S
C2725      C2726   1.413       .  A
C2725      C2732   1.451       .  S
C2726      C2727   1.413       .  A
C2727      C2728   1.410       .  A
C2727      C2730   1.452       .  S
C2728      C2731   1.451       .  S
C2729      N2736   1.157       .  T
C2730      N2735   1.157       .  T
C2731      N2733   1.157       .  T
C2732      N2734   1.157       .  T
C2737      C2738   1.415       .  A
C2737      C2742   1.415       .  A
C2738      C2739   1.409       .  A
C2738      C2743   1.452       .  S
C2739      C2740   1.413       .  A
C2739      C2746   1.452       .  S
C2740      C2741   1.414       .  A
C2741      C2742   1.414       .  A
C2741      C2744   1.451       .  S
C2742      C2745   1.451       .  S
C2743      N2750   1.157       .  T
C2744      N2749   1.157       .  T
C2745      N2747   1.157       .  T
C2746      N2748   1.157       .  T
C2751      C2752   1.413       .  A
C2751      C2756   1.413       .  A
C2752      C2753   1.410       .  A
C2752      C2757   1.451       .  S
C2753      C2754   1.411       .  A
C2753      C2760   1.451       .  S
C2754      C2755   1.412       .  A
C2755      C2756   1.408       .  A
C2755      C2758   1.452       .  S
C2756      C2759   1.451       .  S
C2757      N2764   1.157       .  T
C2758      N2763   1.157       .  T
C2759      N2761   1.157       .  T
C2760      N2762   1.157       .  T
C2765      C2766   1.412       .  A
C2765      C2770   1.414       .  A
C2766      C2767   1.408       .  A
C2766      C2771   1.451       .  S
C2767      C2768   1.412       .  A
C2767      C2774   1.452       .  S
C2768      C2769   1.412       .  A
C2769      C2770   1.410       .  A
C2769      C2772   1.451       .  S
C2770      C2773   1.451       .  S
C2771      N2778   1.157       .  T
C2772      N2777   1.157       .  T
C2773      N2775   1.157       .  T
C2774      N2776   1.157       .  T
C2779      C2780   1.413       .  A
C2779      C2784   1.413       .  A
C2780      C2781   1.411       .  A
C2780      C2785   1.451       .  S
C2781      C2782   1.414       .  A
C2781      C2788   1.451       .  S
C2782      C2783   1.414       .  A
C2783      C2784   1.409       .  A
C2783      C2786   1.452       .  S
C2784      C2787   1.452       .  S
C2785      N2792   1.157       .  T
C2786      N2791   1.157       .  T
C2787      N2789   1.157       .  T
C2788      N2790   1.157       .  T
C2793      C2794   1.413       .  A
C2793      C2798   1.415       .  A
C2794      C2795   1.411       .  A
C2794      C2799   1.451       .  S
C2795      C2796   1.414       .  A
C2795      C2802   1.451       .  S
C2796      C2797   1.413       .  A
C2797      C2798   1.410       .  A
C2797      C2800   1.452       .  S
C2798      C2801   1.451       .  S
C2799      N2806   1.157       .  T
C2800      N2805   1.157       .  T
C2801      N2803   1.157       .  T
C2802      N2804   1.157       .  T
C2807      C2808   1.413       .  A
C2807      C2812   1.414       .  A
C2808      C2809   1.413       .  A
C2808      C2813   1.451       .  S
C2809      C2810   1.414       .  A
C2809      C2816   1.451       .  S
C2810      C2811   1.414       .  A
C2811      C2812   1.413       .  A
C2811      C2814   1.451       .  S
C2812      C2815   1.451       .  S
C2813      N2820   1.157       .  T
C2814      N2819   1.157       .  T
C2815      N2817   1.157       .  T
C2816      N2818   1.157       .  T
C2821      C2822   1.417       .  A
C2821      C2826   1.416       .  A
C2822      C2823   1.410       .  A
C2822      C2827   1.452       .  S
C2823      C2824   1.412       .  A
C2823      C2830   1.452       .  S
C2824      C2825   1.411       .  A
C2825      C2826   1.412       .  A
C2825      C2828   1.451       .  S
C2826      C2829   1.451       .  S
C2827      N2834   1.157       .  T
C2828      N2833   1.157       .  T
C2829      N2831   1.157       .  T
C2830      N2832   1.157       .  T
C2835      C2836   1.413       .  A
C2835      C2840   1.413       .  A
C2836      C2837   1.411       .  A
C2836      C2841   1.451       .  S
C2837      C2838   1.415       .  A
C2837      C2844   1.452       .  S
C2838      C2839   1.413       .  A
C2839      C2840   1.413       .  A
C2839      C2842   1.451       .  S
C2840      C2843   1.451       .  S
C2841      N2848   1.157       .  T
C2842      N2847   1.157       .  T
C2843      N2845   1.157       .  T
C2844      N2846   1.157       .  T
C2849      C2850   1.414       .  A
C2849      C2854   1.415       .  A
C2850      C2851   1.410       .  A
C2850      C2855   1.452       .  S
C2851      C2852   1.413       .  A
C2851      C2858   1.451       .  S
C2852      C2853   1.415       .  A
C2853      C2854   1.412       .  A
C2853      C2856   1.452       .  S
C2854      C2857   1.451       .  S
C2855      N2862   1.157       .  T
C2856      N2861   1.157       .  T
C2857      N2859   1.157       .  T
C2858      N2860   1.157       .  T
C2863      C2864   1.414       .  A
C2863      C2868   1.414       .  A
C2864      C2865   1.410       .  A
C2864      C2869   1.452       .  S
C2865      C2866   1.414       .  A
C2865      C2872   1.452       .  S
C2866      C2867   1.415       .  A
C2867      C2868   1.414       .  A
C2867      C2870   1.451       .  S
C2868      C2871   1.451       .  S
C2869      N2876   1.157       .  T
C2870      N2875   1.157       .  T
C2871      N2873   1.157       .  T
C2872      N2874   1.157       .  T
C2877      C2878   1.412       .  A
C2877      C2882   1.413       .  A
C2878      C2879   1.411       .  A
C2878      C2883   1.451       .  S
C2879      C2880   1.414       .  A
C2879      C2886   1.451       .  S
C2880      C2881   1.414       .  A
C2881      C2882   1.410       .  A
C2881      C2884   1.451       .  S
C2882      C2885   1.452       .  S
C2883      N2890   1.157       .  T
C2884      N2889   1.157       .  T
C2885      N2887   1.157       .  T
C2886      N2888   1.157       .  T
C2891      C2892   1.415       .  A
C2891      C2896   1.414       .  A
C2892      C2893   1.411       .  A
C2892      C2897   1.451       .  S
C2893      C2894   1.413       .  A
C2893      C2900   1.452       .  S
C2894      C2895   1.413       .  A
C2895      C2896   1.411       .  A
C2895      C2898   1.451       .  S
C2896      C2899   1.451       .  S
C2897      N2904   1.157       .  T
C2898      N2903   1.157       .  T
C2899      N2901   1.157       .  T
C2900      N2902   1.157       .  T
C2905      C2906   1.412       .  A
C2905      C2910   1.416       .  A
C2906      C2907   1.410       .  A
C2906      C2911   1.451       .  S
C2907      C2908   1.414       .  A
C2907      C2914   1.451       .  S
C2908      C2909   1.415       .  A
C2909      C2910   1.414       .  A
C2909      C2912   1.451       .  S
C2910      C2913   1.451       .  S
C2911      N2918   1.157       .  T
C2912      N2917   1.158       .  T
C2913      N2915   1.158       .  T
C2914      N2916   1.157       .  T
C2919      C2920   1.415       .  A
C2919      C2924   1.416       .  A
C2920      C2921   1.413       .  A
C2920      C2925   1.451       .  S
C2921      C2922   1.412       .  A
C2921      C2928   1.451       .  S
C2922      C2923   1.413       .  A
C2923      C2924   1.411       .  A
C2923      C2926   1.452       .  S
C2924      C2927   1.452       .  S
C2925      N2932   1.157       .  T
C2926      N2931   1.157       .  T
C2927      N2929   1.157       .  T
C2928      N2930   1.157       .  T
C2933      C2934   1.415       .  A
C2933      C2938   1.416       .  A
C2934      C2935   1.412       .  A
C2934      C2939   1.451       .  S
C2935      C2936   1.413       .  A
C2935      C2942   1.452       .  S
C2936      C2937   1.413       .  A
C2937      C2938   1.414       .  A
C2937      C2940   1.451       .  S
C2938      C2941   1.451       .  S
C2939      N2946   1.157       .  T
C2940      N2945   1.157       .  T
C2941      N2943   1.157       .  T
C2942      N2944   1.157       .  T
C2947      C2948   1.413       .  A
C2947      C2952   1.414       .  A
C2948      C2949   1.410       .  A
C2948      C2953   1.451       .  S
C2949      C2950   1.414       .  A
C2949      C2956   1.452       .  S
C2950      C2951   1.412       .  A
C2951      C2952   1.412       .  A
C2951      C2954   1.451       .  S
C2952      C2955   1.451       .  S
C2953      N2960   1.157       .  T
C2954      N2959   1.157       .  T
C2955      N2957   1.157       .  T
C2956      N2958   1.157       .  T
C2961      C2962   1.417       .  A
C2961      C2966   1.416       .  A
C2962      C2963   1.412       .  A
C2962      C2967   1.451       .  S
C2963      C2964   1.412       .  A
C2963      C2970   1.452       .  S
C2964      C2965   1.413       .  A
C2965      C2966   1.412       .  A
C2965      C2968   1.452       .  S
C2966      C2969   1.451       .  S
C2967      N2974   1.157       .  T
C2968      N2973   1.157       .  T
C2969      N2971   1.157       .  T
C2970      N2972   1.157       .  T
C2975      C2976   1.413       .  A
C2975      C2980   1.414       .  A
C2976      C2977   1.410       .  A
C2976      C2981   1.452       .  S
C2977      C2978   1.415       .  A
C2977      C2984   1.452       .  S
C2978      C2979   1.416       .  A
C2979      C2980   1.413       .  A
C2979      C2982   1.451       .  S
C2980      C2983   1.452       .  S
C2981      N2988   1.157       .  T
C2982      N2987   1.157       .  T
C2983      N2985   1.157       .  T
C2984      N2986   1.157       .  T
C2989      C2990   1.413       .  A
C2989      C2994   1.413       .  A
C2990      C2991   1.409       .  A
C2990      C2995   1.452       .  S
C2991      C2992   1.413       .  A
C2991      C2998   1.451       .  S
C2992      C2993   1.414       .  A
C2993      C2994   1.411       .  A
C2993      C2996   1.451       .  S
C2994      C2997   1.451       .  S
C2995      N3002   1.157       .  T
C2996      N3001   1.157       .  T
C2997      N2999   1.157       .  T
C2998      N3000   1.157       .  T
C3003      C3004   1.412       .  A
C3003      C3008   1.414       .  A
C3004      C3005   1.412       .  A
C3004      C3009   1.451       .  S
C3005      C3006   1.416       .  A
C3005      C3012   1.451       .  S
C3006      C3007   1.417       .  A
C3007      C3008   1.413       .  A
C3007      C3010   1.451       .  S
C3008      C3011   1.452       .  S
C3009      N3016   1.157       .  T
C3010      N3015   1.157       .  T
C3011      N3013   1.157       .  T
C3012      N3014   1.157       .  T
C3017      C3018   1.412       .  A
C3017      C3022   1.412       .  A
C3018      C3019   1.411       .  A
C3018      C3023   1.451       .  S
C3019      C3020   1.415       .  A
C3019      C3026   1.451       .  S
C3020      C3021   1.414       .  A
C3021      C3022   1.410       .  A
C3021      C3024   1.451       .  S
C3022      C3025   1.452       .  S
C3023      N3030   1.157       .  T
C3024      N3029   1.157       .  T
C3025      N3027   1.157       .  T
C3026      N3028   1.157       .  T
C3031      C3032   1.415       .  A
C3031      C3036   1.417       .  A
C3032      C3033   1.410       .  A
C3032      C3037   1.452       .  S
C3033      C3034   1.414       .  A
C3033      C3040   1.452       .  S
C3034      C3035   1.414       .  A
C3035      C3036   1.414       .  A
C3035      C3038   1.451       .  S
C3036      C3039   1.451       .  S
C3037      N3044   1.157       .  T
C3038      N3043   1.157       .  T
C3039      N3041   1.158       .  T
C3040      N3042   1.157       .  T
C3045      C3046   1.413       .  A
C3045      C3050   1.413       .  A
C3046      C3047   1.409       .  A
C3046      C3051   1.452       .  S
C3047      C3048   1.414       .  A
C3047      C3054   1.451       .  S
C3048      C3049   1.414       .  A
C3049      C3050   1.410       .  A
C3049      C3052   1.451       .  S
C3050      C3053   1.452       .  S
C3051      N3058   1.157       .  T
C3052      N3057   1.157       .  T
C3053      N3055   1.157       .  T
C3054      N3056   1.157       .  T
C3059      C3060   1.416       .  A
C3059      C3064   1.416       .  A
C3060      C3061   1.410       .  A
C3060      C3065   1.451       .  S
C3061      C3062   1.412       .  A
C3061      C3068   1.452       .  S
C3062      C3063   1.411       .  A
C3063      C3064   1.409       .  A
C3063      C3066   1.452       .  S
C3064      C3067   1.451       .  S
C3065      N3072   1.157       .  T
C3066      N3071   1.157       .  T
C3067      N3069   1.157       .  T
C3068      N3070   1.157       .  T
C3073      C3074   1.414       .  A
C3073      C3078   1.415       .  A
C3074      C3075   1.413       .  A
C3074      C3079   1.451       .  S
C3075      C3076   1.413       .  A
C3075      C3082   1.451       .  S
C3076      C3077   1.413       .  A
C3077      C3078   1.411       .  A
C3077      C3080   1.451       .  S
C3078      C3081   1.452       .  S
C3079      N3086   1.157       .  T
C3080      N3085   1.157       .  T
C3081      N3083   1.157       .  T
C3082      N3084   1.157       .  T
C3087      C3088   1.412       .  A
C3087      C3092   1.413       .  A
C3088      C3089   1.410       .  A
C3088      C3093   1.452       .  S
C3089      C3090   1.414       .  A
C3089      C3096   1.451       .  S
C3090      C3091   1.414       .  A
C3091      C3092   1.412       .  A
C3091      C3094   1.451       .  S
C3092      C3095   1.451       .  S
C3093      N3100   1.157       .  T
C3094      N3099   1.157       .  T
C3095      N3097   1.157       .  T
C3096      N3098   1.157       .  T
C3101      C3102   1.414       .  A
C3101      C3106   1.414       .  A
C3102      C3103   1.412       .  A
C3102      C3107   1.451       .  S
C3103      C3104   1.415       .  A
C3103      C3110   1.451       .  S
C3104      C3105   1.414       .  A
C3105      C3106   1.409       .  A
C3105      C3108   1.452       .  S
C3106      C3109   1.452       .  S
C3107      N3114   1.157       .  T
C3108      N3113   1.157       .  T
C3109      N3111   1.157       .  T
C3110      N3112   1.157       .  T
C3115      C3116   1.414       .  A
C3115      C3120   1.414       .  A
C3116      C3117   1.409       .  A
C3116      C3121   1.452       .  S
C3117      C3118   1.412       .  A
C3117      C3124   1.451       .  S
C3118      C3119   1.412       .  A
C3119      C3120   1.413       .  A
C3119      C3122   1.451       .  S
C3120      C3123   1.451       .  S
C3121      N3128   1.157       .  T
C3122      N3127   1.157       .  T
C3123      N3125   1.157       .  T
C3124      N3126   1.157       .  T
C3129      C3130   1.412       .  A
C3129      C3134   1.413       .  A
C3130      C3131   1.411       .  A
C3130      C3135   1.451       .  S
C3131      C3132   1.415       .  A
C3131      C3138   1.451       .  S
C3132      C3133   1.415       .  A
C3133      C3134   1.411       .  A
C3133      C3136   1.451       .  S
C3134      C3137   1.452       .  S
C3135      N3142   1.157       .  T
C3136      N3141   1.157       .  T
C3137      N3139   1.157       .  T
C3138      N3140   1.157       .  T
C3143      C3144   1.413       .  A
C3143      C3148   1.415       .  A
C3144      C3145   1.411       .  A
C3144      C3149   1.452       .  S
C3145      C3146   1.416       .  A
C3145      C3152   1.451       .  S
C3146      C3147   1.415       .  A
C3147      C3148   1.413       .  A
C3147      C3150   1.452       .  S
C3148      C3151   1.452       .  S
C3149      N3156   1.157       .  T
C3150      N3155   1.157       .  T
C3151      N3153   1.158       .  T
C3152      N3154   1.157       .  T
C3157      C3158   1.416       .  A
C3157      C3162   1.416       .  A
C3158      C3159   1.413       .  A
C3158      C3163   1.452       .  S
C3159      C3160   1.415       .  A
C3159      C3166   1.451       .  S
C3160      C3161   1.414       .  A
C3161      C3162   1.414       .  A
C3161      C3164   1.451       .  S
C3162      C3165   1.451       .  S
C3163      N3170   1.157       .  T
C3164      N3169   1.157       .  T
C3165      N3167   1.157       .  T
C3166      N3168   1.157       .  T
C3171      C3172   1.413       .  A
C3171      C3176   1.411       .  A
C3172      C3173   1.410       .  A
C3172      C3177   1.451       .  S
C3173      C3174   1.414       .  A
C3173      C3180   1.452       .  S
C3174      C3175   1.414       .  A
C3175      C3176   1.409       .  A
C3175      C3178   1.452       .  S
C3176      C3179   1.451       .  S
C3177      N3184   1.157       .  T
C3178      N3183   1.157       .  T
C3179      N3181   1.157       .  T
C3180      N3182   1.157       .  T
C3185      C3186   1.414       .  A
C3185      C3190   1.414       .  A
C3186      C3187   1.409       .  A
C3186      C3191   1.452       .  S
C3187      C3188   1.414       .  A
C3187      C3194   1.451       .  S
C3188      C3189   1.414       .  A
C3189      C3190   1.412       .  A
C3189      C3192   1.451       .  S
C3190      C3193   1.451       .  S
C3191      N3198   1.157       .  T
C3192      N3197   1.157       .  T
C3193      N3195   1.157       .  T
C3194      N3196   1.157       .  T
C3199      C3200   1.414       .  A
C3199      C3204   1.414       .  A
C3200      C3201   1.411       .  A
C3200      C3205   1.451       .  S
C3201      C3202   1.414       .  A
C3201      C3208   1.451       .  S
C3202      C3203   1.413       .  A
C3203      C3204   1.411       .  A
C3203      C3206   1.452       .  S
C3204      C3207   1.451       .  S
C3205      N3212   1.157       .  T
C3206      N3211   1.157       .  T
C3207      N3209   1.157       .  T
C3208      N3210   1.157       .  T
C3213      C3214   1.413       .  A
C3213      C3218   1.415       .  A
C3214      C3215   1.411       .  A
C3214      C3219   1.451       .  S
C3215      C3216   1.415       .  A
C3215      C3222   1.451       .  S
C3216      C3217   1.413       .  A
C3217      C3218   1.410       .  A
C3217      C3220   1.452       .  S
C3218      C3221   1.452       .  S
C3219      N3226   1.157       .  T
C3220      N3225   1.157       .  T
C3221      N3223   1.157       .  T
C3222      N3224   1.157       .  T
C3227      C3228   1.410       .  A
C3227      C3232   1.412       .  A
C3228      C3229   1.412       .  A
C3228      C3233   1.451       .  S
C3229      C3230   1.417       .  A
C3229      C3236   1.451       .  S
C3230      C3231   1.418       .  A
C3231      C3232   1.413       .  A
C3231      C3234   1.451       .  S
C3232      C3235   1.452       .  S
C3233      N3240   1.157       .  T
C3234      N3239   1.158       .  T
C3235      N3237   1.157       .  T
C3236      N3238   1.157       .  T
