geometry optimzed in LAMMPS
_audit_creation_date              2020-11-30 
_audit_creation_method            'lammps2cif' 
_symmetry_space_group_name_H-M    'P1' 
_symmetry_Int_Tables_number       1 
_symmetry_cell_setting            triclinic 
loop_ 
_symmetry_equiv_pos_as_xyz 
  x,y,z 
_cell_length_a                    29.92801712 
_cell_length_b                    29.835628449213445 
_cell_length_c                    48.005721619113714 
_cell_angle_alpha                 90.46744618889674 
_cell_angle_beta                  89.68527068196046 
_cell_angle_gamma                 90.1056155518941 
loop_ 
_atom_site_label 
_atom_site_type_symbol 
_atom_site_fract_x 
_atom_site_fract_y 
_atom_site_fract_z 
_atom_site_charge 
O1          O  0.47876805  0.45707360  0.40890243    -0.57100
C2          C  0.44108814  0.41761779  0.48255857     0.75500
O3          O  0.35882481  0.36202927  0.41065492    -0.58300
C4          C  0.47365329  0.44952497  0.38317963     0.75500
C5          C  0.46363573  0.30622603  0.42364875     0.77900
Cd6        Cd  0.43015253  0.39608878  0.42474631     1.37500
O7          O  0.41571235  0.44034341  0.46721998    -0.57100
O8          O  0.48848796  0.33899985  0.41721450    -0.55900
C9          C  0.33507527  0.39539464  0.41750009     0.77800
O10         O  0.42336623  0.31506134  0.42959400    -0.58300
O11         O  0.46468333  0.38796217  0.47074043    -0.56700
O12         O  0.44757847  0.41791316  0.37648793    -0.56700
O13         O  0.35543524  0.43005919  0.42593559    -0.55900
O14         O  0.50690462  0.52860549  0.27932527    -0.57100
C15         C  0.49806356  0.47525734  0.36227704     0.75500
O16         O  0.63271285  0.53420062  0.32630229    -0.58300
C17         C  0.53708845  0.51213582  0.26375915     0.75500
C18         C  0.54483846  0.61784940  0.32865266     0.77900
Cd19       Cd  0.55168826  0.52235232  0.32212311     1.37500
O20         O  0.49423652  0.46735495  0.33650145    -0.57100
O21         O  0.52300888  0.59673563  0.31028704    -0.55900
C22         C  0.64286785  0.49309807  0.32478484     0.77800
O23         O  0.56834266  0.59452102  0.34485358    -0.58300
O24         O  0.52514134  0.50570664  0.36929111    -0.56700
O25         O  0.57144369  0.49683490  0.27549799    -0.56700
O26         O  0.61073624  0.46560283  0.32313313    -0.55900
O27         O  0.50397730  0.53522102  0.22125177    -0.57100
C28         C  0.49732656  0.48632154  0.13369236     0.75500
O29         O  0.55016237  0.61666555  0.16324736    -0.58300
C30         C  0.53514549  0.51493186  0.23348843     0.75500
C31         C  0.63800872  0.53149892  0.17111363     0.77900
Cd32       Cd  0.54297603  0.53698636  0.17580013     1.37500
O33         O  0.49432525  0.47628949  0.15915315    -0.57100
O34         O  0.61346225  0.49774116  0.16623893    -0.55900
C35         C  0.51366296  0.62832207  0.17458198     0.77800
O36         O  0.61832199  0.56800919  0.17669826    -0.58300
O37         O  0.52205256  0.51917954  0.12755653    -0.56700
O38         O  0.56707263  0.50086159  0.21855055    -0.56700
O39         O  0.49004113  0.59740109  0.18491492    -0.55900
O40         O  0.47692066  0.47030861  0.08683071    -0.57100
C41         C  0.43934677  0.42183676  0.01281309     0.75500
O42         O  0.38743037  0.34177948  0.07361778    -0.58300
C43         C  0.47249534  0.46171279  0.11243354     0.75500
C44         C  0.32942186  0.44170735  0.07704792     0.77900
Cd45       Cd  0.42071772  0.41561855  0.07115044     1.37500
O46         O  0.41214135  0.44810555  0.02471368    -0.57100
O47         O  0.35959033  0.47060569  0.07258561    -0.55900
C48         C  0.42361419  0.32083313  0.07701442     0.77800
O49         O  0.34178617  0.40172479  0.08059211    -0.58300
O50         O  0.46162680  0.39620847  0.02823724    -0.56700
O51         O  0.44488144  0.43142112  0.11888824    -0.56700
O52         O  0.45902851  0.34402282  0.07874265    -0.55900
O53         O  0.96107605  0.01597474  0.35117454    -0.57100
C54         C  0.96990535  0.97089315  0.26684900     0.75500
O55         O  0.83494721  0.02312911  0.30436322    -0.58300
C56         C  0.92760641  0.00850797  0.36674487     0.75500
C57         C  0.92027980  0.11266470  0.30192464     0.77900
Cd58       Cd  0.91577942  0.01679191  0.30783291     1.37500
O59         O  0.97103266  0.96001122  0.29225405    -0.57100
O60         O  0.94729066  0.09154880  0.31713402    -0.55900
C61         C  0.82737477  0.98148973  0.30253785     0.77800
O62         O  0.89290303  0.08919692  0.28806225    -0.58300
O63         O  0.94542884  0.00375800  0.26069471    -0.56700
O64         O  0.89073420  0.00128716  0.35488803    -0.56700
O65         O  0.86108403  0.95593917  0.30189918    -0.55900
O66         O  0.99225996  0.95645440  0.21992363    -0.57100
C67         C  0.03318577  0.91297499  0.14379675     0.75500
O68         O  0.11696962  0.86710094  0.20723669    -0.58300
C69         C  0.99477135  0.94613873  0.24534964     0.75500
C70         C  0.01434319  0.80385575  0.20455342     0.77900
Cd71       Cd  0.04120765  0.89594225  0.20244228     1.37500
O72         O  0.00478372  0.88887784  0.15623164    -0.57100
O73         O  0.98728988  0.83463745  0.19821732    -0.55900
C74         C  0.13628056  0.90486625  0.20729735     0.77800
O75         O  0.05353687  0.81576606  0.21115140    -0.58300
O76         O  0.06172118  0.93271738  0.15878513    -0.56700
O77         O  0.01901229  0.91292925  0.25116501    -0.56700
O78         O  0.11130205  0.93903874  0.20674671    -0.55900
O79         O  0.98452461  0.51467493  0.08591286    -0.57100
C80         C  0.04078479  0.47733477  0.50883467     0.75500
O81         O  0.08441446  0.60114167  0.05559142    -0.58300
C82         C  0.00205456  0.51321910  0.10978445     0.75500
C83         C  0.14525825  0.49462080  0.06992809     0.77900
Cd84       Cd  0.05576765  0.52459669  0.06029809     1.37500
O85         O  0.03114725  0.46007196  0.03210836    -0.57100
O86         O  0.11399314  0.46758754  0.06414278    -0.55900
C87         C  0.04687165  0.61883684  0.05080026     0.77800
O88         O  0.13485112  0.53557394  0.07245479    -0.58300
O89         O  0.05415593  0.51753155  0.50915888    -0.56700
O90         O  0.04421155  0.51401442  0.11067590    -0.56700
O91         O  0.01351973  0.59279363  0.04965253    -0.55900
O92         O  0.04629323  0.46859750  0.45944783    -0.57100
C93         C  0.00120122  0.41430702  0.38268335     0.75500
O94         O  0.11930052  0.35998337  0.42364865    -0.58300
C95         C  0.03953523  0.45101981  0.48300259     0.75500
C96         C  0.01287899  0.30951829  0.44605773     0.77900
Cd97       Cd  0.04786570  0.39659240  0.43349724     1.37500
O98         O  0.98657258  0.42853361  0.40588437    -0.57100
O99         O  0.98758848  0.34171191  0.43961911    -0.55900
C100        C  0.14262752  0.39534535  0.42355039     0.77800
O101        O  0.05416164  0.31814117  0.44804264    -0.58300
O102        O  0.03907158  0.39575893  0.38265930    -0.56700
O103        O  0.03425083  0.40902990  0.48341580    -0.56700
O104        O  0.12180011  0.43186372  0.42702011    -0.55900
O105        O  0.98858515  0.40128375  0.33430984    -0.57100
C106        C  0.93161297  0.44983526  0.26020615     0.75500
O107        O  0.89763134  0.32622742  0.32639205    -0.58300
C108        C  0.97387145  0.41527336  0.35755844     0.75500
C109        C  0.82463826  0.43000129  0.31916532     0.77900
Cd110      Cd  0.91535096  0.40211139  0.31107317     1.37500
O111        O  0.94188048  0.46651197  0.28362273    -0.57100
O112        O  0.83382888  0.39028280  0.31180164    -0.55900
C113        C  0.91903804  0.30627833  0.30716883     0.77800
O114        O  0.85720509  0.45590449  0.32393023    -0.58300
O115        O  0.91732880  0.40997680  0.26007257    -0.56700
O116        O  0.93327143  0.42664086  0.35862165    -0.56700
O117        O  0.93941823  0.33078927  0.28980229    -0.55900
O118        O  0.92728757  0.45887334  0.21093632    -0.57100
C119        C  0.97503228  0.51413081  0.13528871     0.75500
O120        O  0.84961218  0.56205051  0.18891393    -0.58300
C121        C  0.93310233  0.47638458  0.23472530     0.75500
C122        C  0.95539040  0.62069696  0.19489548     0.77900
Cd123      Cd  0.92505877  0.53085824  0.18576206     1.37500
O124        O  0.99228180  0.50880052  0.15899591    -0.57100
O125        O  0.97980230  0.58738134  0.20039564    -0.55900
C126        C  0.83002249  0.52804798  0.17880414     0.77800
O127        O  0.91658033  0.61249544  0.18583512    -0.58300
O128        O  0.93388938  0.52336709  0.13479714    -0.56700
O129        O  0.93758916  0.51845213  0.23567102    -0.56700
O130        O  0.85436803  0.49512815  0.17179975    -0.55900
O131        O  0.99869864  0.96495625  0.04053425    -0.57100
C132        C  0.03609376  0.91464049  0.11341131     0.75500
O133        O  0.08180407  0.83061469  0.04865292    -0.58300
C134        C  0.00154710  0.95714201  0.01467708     0.75500
C135        C  0.14280566  0.93695276  0.04790465     0.77900
Cd136      Cd  0.05238359  0.90690313  0.05430220     1.37500
O137        O  0.00803860  0.89534056  0.09777777    -0.57100
O138        O  0.11187010  0.96286685  0.05600865    -0.55900
C139        C  0.04420262  0.81145214  0.04672117     0.77800
O140        O  0.13152770  0.89739194  0.04122726    -0.58300
O141        O  0.06925478  0.93259663  0.10161855    -0.56700
O142        O  0.02742315  0.92590941  0.50708831    -0.56700
O143        O  0.01022193  0.83664131  0.04721560    -0.55900
O144        O  0.97787539  0.97447044  0.46872557    -0.57100
C145        C  0.92956792  0.01204870  0.39708426     0.75500
O146        O  0.84937608  0.06135145  0.45855225    -0.58300
C147        C  0.97615092  0.98306507  0.99452462     0.75500
C148        C  0.95387054  0.12657991  0.45628359     0.77900
Cd149      Cd  0.92593360  0.03436411  0.45519841     1.37500
O150        O  0.96495925  0.02257491  0.40990674    -0.57100
O151        O  0.96793605  0.09881726  0.43832338    -0.55900
C152        C  0.83171781  0.02362351  0.46346605     0.77800
O153        O  0.92773202  0.11167127  0.47484139    -0.58300
O154        O  0.89438823  0.00815249  0.41150753    -0.56700
O155        O  0.95146285  0.01521928  0.00213000    -0.56700
O156        O  0.85799308  0.99068566  0.46590168    -0.55900
O157        O  0.54006274  0.96173617  0.41964009    -0.57100
C158        C  0.49649273  0.02121022  0.99636338     0.75500
O159        O  0.62351948  0.06031141  0.44876818    -0.58300
C160        C  0.53543407  0.98002066  0.39616591     0.75500
C161        C  0.52153435  0.12347886  0.43595369     0.77900
Cd162      Cd  0.54699970  0.03290645  0.44609972     1.37500
O163        O  0.48050147  0.01081911  0.47283081    -0.57100
O164        O  0.49302901  0.09351833  0.44162169    -0.55900
C165        C  0.64039976  0.02388238  0.45687546     0.77800
O166        O  0.56196384  0.11128160  0.43442017    -0.58300
O167        O  0.53695844  0.03332530  0.99694945    -0.56700
O168        O  0.53322912  0.02225119  0.39600174    -0.56700
O169        O  0.61387358  0.99132717  0.46054819    -0.55900
O170        O  0.48484228  0.02910359  0.04533586    -0.57100
C171        C  0.42816239  0.98346097  0.11958297     0.75500
O172        O  0.38055469  0.10902281  0.06904863    -0.58300
C173        C  0.46859498  0.02214685  0.02142700     0.75500
C174        C  0.32290597  0.00360300  0.05725678     0.77900
Cd175      Cd  0.41178824  0.03319751  0.06942435     1.37500
O176        O  0.43241502  0.96593620  0.09570135    -0.57100
O177        O  0.35698405  0.98077487  0.05064926    -0.55900
C178        C  0.41681511  0.12842144  0.07526353     0.77800
O179        O  0.32980934  0.04137686  0.06865885    -0.58300
O180        O  0.41888214  0.02471249  0.12048535    -0.56700
O181        O  0.42663888  0.01855487  0.01992750    -0.56700
O182        O  0.45044055  0.10378518  0.07940838    -0.55900
O183        O  0.48753722  0.92729287  0.22155163    -0.57100
C184        C  0.43080051  0.95650250  0.14482282     0.75500
O185        O  0.41651714  0.82015278  0.19420906    -0.58300
C186        C  0.46975449  0.91847405  0.24483946     0.75500
C187        C  0.32829873  0.90503051  0.19942224     0.77900
Cd188      Cd  0.42333725  0.90146919  0.19342416     1.37500
O189        O  0.42813095  0.97387241  0.16890057    -0.57100
O190        O  0.35242053  0.93897226  0.20447904    -0.55900
C191        C  0.45437944  0.81185804  0.18355531     0.77800
O192        O  0.34806467  0.86956813  0.19175518    -0.58300
O193        O  0.43322873  0.91426852  0.14343457    -0.56700
O194        O  0.42963372  0.90541579  0.24449898    -0.56700
O195        O  0.47774747  0.84523175  0.17623392    -0.55900
O196        O  0.47862452  0.90746870  0.29366885    -0.57100
C197        C  0.53597731  0.95398389  0.37020355     0.75500
O198        O  0.56983542  0.82897602  0.30720136    -0.58300
C199        C  0.49548668  0.91939204  0.27066695     0.75500
C200        C  0.64293678  0.92774312  0.31045491     0.77900
Cd201      Cd  0.55050416  0.90589191  0.31881930     1.37500
O202        O  0.52825054  0.97188354  0.34691521    -0.57100
O203        O  0.61315607  0.95770265  0.31168340    -0.55900
C204        C  0.54484799  0.81086441  0.32522861     0.77800
O205        O  0.62977619  0.88768214  0.31274140    -0.58300
O206        O  0.54708844  0.91315954  0.36984830    -0.56700
O207        O  0.53661053  0.92877694  0.27058786    -0.56700
O208        O  0.52128007  0.83684311  0.34024677    -0.55900
C209        C  0.71094721  0.05091240  0.47872979    -0.01100
C210        C  0.68884840  0.01982200  0.46133908     0.08500
C211        C  0.71356365  0.98679199  0.44682602    -0.01300
C212        C  0.76050767  0.98637600  0.44857997    -0.01300
C213        C  0.78272288  0.01869533  0.46517767     0.08700
C214        C  0.75768390  0.04971986  0.48107939    -0.01500
Br215      Br  0.78739456  0.08981772  0.00679496    -0.01600
Br216      Br  0.67730901  0.09551598  0.99928045    -0.00100
Br217      Br  0.79403093  0.94384415  0.42626966     0.00000
Br218      Br  0.68357070  0.94487428  0.42232022     0.00000
C219        C  0.22278090  0.92644184  0.06111395    -0.01100
C220        C  0.18983328  0.95199203  0.04755668     0.08500
C221        C  0.20120648  0.99393318  0.03608586    -0.01300
C222        C  0.24483644  0.01099262  0.03903686    -0.01300
C223        C  0.27743963  0.98579606  0.05307376     0.08700
C224        C  0.26637178  0.94340637  0.06394174    -0.01500
Br225      Br  0.30984247  0.91016401  0.08512226     0.00000
Br226      Br  0.20793930  0.86962927  0.07790610    -0.00100
Br227      Br  0.25985523  0.06858199  0.02346764     0.00000
Br228      Br  0.15740049  0.02741041  0.01542801     0.00000
C229        C  0.95581687  0.19882831  0.43090259    -0.01100
C230        C  0.96663504  0.17415437  0.45484340     0.08500
C231        C  0.99143354  0.19434764  0.47642456    -0.01300
C232        C  0.00605022  0.23903302  0.47386468    -0.01300
C233        C  0.99538596  0.26371016  0.44983405     0.08700
C234        C  0.96987542  0.24358167  0.42845611    -0.01500
Br235      Br  0.95665752  0.27597513  0.39475140     0.00000
Br236      Br  0.92172049  0.17119264  0.40125006    -0.00100
Br237      Br  0.04024629  0.26644535  0.50345281     0.00000
Br238      Br  0.00785987  0.15984203  0.00860450     0.00000
C239        C  0.01286071  0.69199820  0.06483773    -0.01100
C240        C  0.04230073  0.66765029  0.04742215     0.08500
C241        C  0.06900181  0.69031574  0.02779817    -0.01300
C242        C  0.06826751  0.73742492  0.02669368    -0.01300
C243        C  0.04051131  0.76205771  0.04510959     0.08700
C244        C  0.01167790  0.73907585  0.06355143    -0.01500
Br245      Br  0.97255423  0.77167192  0.08862478     0.00000
Br246      Br  0.97656718  0.66122655  0.09210032    -0.00100
Br247      Br  0.10421074  0.76790845  0.99918803     0.00000
Br248      Br  0.10550168  0.65658040  0.00179402     0.00000
C249        C  0.20749563  0.93595421  0.18740566    -0.01100
C250        C  0.18554878  0.90829747  0.20702325     0.08500
C251        C  0.21096411  0.88066048  0.22461758    -0.01300
C252        C  0.25768077  0.87897706  0.22172497    -0.01300
C253        C  0.27942291  0.90665847  0.20227944     0.08700
C254        C  0.25441277  0.93536649  0.18526270    -0.01500
Br255      Br  0.28436449  0.97101426  0.15733451     0.00000
Br256      Br  0.17381815  0.97221337  0.16182048    -0.00100
Br257      Br  0.29193538  0.83847028  0.24435684     0.00000
Br258      Br  0.18217915  0.84655955  0.25368269     0.00000
C259        C  0.02448895  0.72595665  0.18619990    -0.01100
C260        C  0.00091410  0.75634181  0.20349590     0.08500
C261        C  0.96292918  0.74178337  0.21840835    -0.01300
C262        C  0.94841131  0.69708336  0.21594954    -0.01300
C263        C  0.97162302  0.66693703  0.19841623     0.08700
C264        C  0.00968522  0.68136489  0.18355276    -0.01500
Br265      Br  0.03954751  0.64094623  0.15790876     0.00000
Br266      Br  0.07516809  0.74599728  0.16449240    -0.00100
Br267      Br  0.89740179  0.67677487  0.23719961     0.00000
Br268      Br  0.93138106  0.78275306  0.24280909     0.00000
C269        C  0.96003607  0.23357691  0.30086883    -0.01100
C270        C  0.91945994  0.25683916  0.30493031     0.08500
C271        C  0.87897740  0.23268498  0.30682573    -0.01300
C272        C  0.87914891  0.18557340  0.30528404    -0.01300
C273        C  0.91976875  0.16224121  0.30133984     0.08700
C274        C  0.96007985  0.18648121  0.29866496    -0.01500
Br275      Br  0.01531694  0.15540980  0.29072906     0.00000
Br276      Br  0.01611551  0.26571968  0.30010744    -0.00100
Br277      Br  0.82357973  0.15336631  0.31015119     0.00000
Br278      Br  0.82271121  0.26401956  0.31064924     0.00000
C279        C  0.76830696  0.93052791  0.32132162    -0.01100
C280        C  0.78128975  0.96400137  0.30229059     0.08500
C281        C  0.74916982  0.98366526  0.28486254    -0.01300
C282        C  0.70399944  0.97115377  0.28709741    -0.01300
C283        C  0.69066219  0.93901550  0.30692096     0.08700
C284        C  0.72303356  0.91849751  0.32389180    -0.01500
Br285      Br  0.70535091  0.87714068  0.35274670     0.00000
Br286      Br  0.81174543  0.90317543  0.34550939    -0.00100
Br287      Br  0.66082614  0.99769278  0.26242297     0.00000
Br288      Br  0.76720945  0.02690965  0.25721285     0.00000
C289        C  0.45150713  0.24723754  0.05935314    -0.01100
C290        C  0.42412156  0.27162537  0.07803609     0.08500
C291        C  0.39472313  0.24885558  0.09614195    -0.01300
C292        C  0.39277244  0.20179152  0.09557302    -0.01300
C293        C  0.42003305  0.17749228  0.07683276     0.08700
C294        C  0.44948216  0.20020384  0.05879047    -0.01500
Br295      Br  0.48462023  0.16702981  0.03177307     0.00000
Br296      Br  0.48893368  0.27808227  0.03273891    -0.00100
Br297      Br  0.35362652  0.17059034  0.12099464     0.00000
Br298      Br  0.35762151  0.28200778  0.12212404     0.00000
C299        C  0.25607060  0.43928758  0.05345781    -0.01100
C300        C  0.28188054  0.45338460  0.07634996     0.08500
C301        C  0.26245185  0.47906094  0.09788393    -0.01300
C302        C  0.21717371  0.49139582  0.09630732    -0.01300
C303        C  0.19179978  0.47924648  0.07270447     0.08700
C304        C  0.21138436  0.45303093  0.05127790    -0.01500
Br305      Br  0.17842047  0.43845970  0.01786354     0.00000
Br306      Br  0.28244770  0.40201851  0.02463333    -0.00100
Br307      Br  0.18943143  0.52268781  0.12716392     0.00000
Br308      Br  0.29764832  0.49577342  0.12988525     0.00000
C309        C  0.70852217  0.49413311  0.18628552    -0.01100
C310        C  0.68720612  0.52844873  0.17122710     0.08500
C311        C  0.71309458  0.56138347  0.15769608    -0.01300
C312        C  0.75989134  0.56103109  0.16007177    -0.01300
C313        C  0.78112256  0.52710800  0.17537527     0.08700
C314        C  0.75543096  0.49309222  0.18795731    -0.01500
Br315      Br  0.78420417  0.44624298  0.20879358     0.00000
Br316      Br  0.67380566  0.45035751  0.20658044    -0.00100
Br317      Br  0.79502085  0.60619133  0.14137456     0.00000
Br318      Br  0.68474473  0.60596250  0.13479875     0.00000
C319        C  0.48513456  0.69316640  0.20253228    -0.01100
C320        C  0.49970646  0.67568411  0.17660354     0.08500
C321        C  0.50100089  0.70364323  0.15301699    -0.01300
C322        C  0.48609203  0.74832671  0.15513459    -0.01300
C323        C  0.47079754  0.76542411  0.18094765     0.08700
C324        C  0.47097274  0.73791616  0.20469158    -0.01500
Br325      Br  0.45419630  0.76219739  0.24073859     0.00000
Br326      Br  0.48708686  0.65696310  0.23578125    -0.00100
Br327      Br  0.48414680  0.78514447  0.12228895     0.00000
Br328      Br  0.52143174  0.68049756  0.11748199     0.00000
C329        C  0.50336759  0.69085572  0.32868662    -0.01100
C330        C  0.54417782  0.66730234  0.33028438     0.08500
C331        C  0.58482217  0.69127950  0.33185643    -0.01300
C332        C  0.58469143  0.73832981  0.33104049    -0.01300
C333        C  0.54406086  0.76178310  0.32852426     0.08700
C334        C  0.50330740  0.73802522  0.32795075    -0.01500
Br335      Br  0.44740172  0.76978941  0.32479096     0.00000
Br336      Br  0.44724973  0.65879925  0.32806854    -0.00100
Br337      Br  0.64050345  0.77062900  0.33416214     0.00000
Br338      Br  0.64138846  0.66012724  0.33318221     0.00000
C339        C  0.76492264  0.48217498  0.30430060    -0.01100
C340        C  0.77831395  0.44610376  0.32104571     0.08500
C341        C  0.74749473  0.42567819  0.33922930    -0.01300
C342        C  0.70339017  0.44177582  0.34099630    -0.01300
C343        C  0.68980062  0.47787638  0.32418745     0.08700
C344        C  0.72079335  0.49807468  0.30582528    -0.01500
Br345      Br  0.70268709  0.54576294  0.28133647     0.00000
Br346      Br  0.80643322  0.50792528  0.27782941    -0.00100
Br347      Br  0.66246574  0.41575365  0.36761421     0.00000
Br348      Br  0.76609687  0.37653781  0.36235136     0.00000
C349        C  0.26356813  0.36213252  0.43411955    -0.01100
C350        C  0.28593300  0.39333220  0.41711140     0.08500
C351        C  0.26130208  0.42405661  0.40128566    -0.01300
C352        C  0.21429313  0.42410368  0.40275211    -0.01300
C353        C  0.19180365  0.39380511  0.42047462     0.08700
C354        C  0.21668670  0.36259974  0.43603585    -0.01500
Br355      Br  0.18732283  0.32252020  0.46182230     0.00000
Br356      Br  0.29730600  0.32040251  0.45627737    -0.00100
Br357      Br  0.18104033  0.46450258  0.37949476     0.00000
Br358      Br  0.29213690  0.46506459  0.37689875     0.00000
C359        C  0.51787202  0.25010996  0.44178465    -0.01100
C360        C  0.48065924  0.25996182  0.42498782     0.08500
C361        C  0.45778362  0.22500730  0.41114173    -0.01300
C362        C  0.47200033  0.18042084  0.41407073    -0.01300
C363        C  0.50819540  0.17042080  0.43164966     0.08700
C364        C  0.53084713  0.20533460  0.44570676    -0.01500
Br365      Br  0.57681399  0.19180994  0.47250160     0.00000
Br366      Br  0.54974744  0.29752415  0.46084503    -0.00100
Br367      Br  0.44261395  0.13332417  0.39317293     0.00000
Br368      Br  0.40762127  0.23816302  0.38743470     0.00000
O369        O  0.47877130  0.45707011  0.90890360    -0.57100
C370        C  0.44108446  0.41762397  0.98255453     0.75500
O371        O  0.35881785  0.36202803  0.91065965    -0.58300
C372        C  0.47365891  0.44952298  0.88318049     0.75500
C373        C  0.46364414  0.30622970  0.92364591     0.77900
Cd374      Cd  0.43015145  0.39608884  0.92474377     1.37500
O375        O  0.41571509  0.44035267  0.96721373    -0.57100
O376        O  0.48849437  0.33900682  0.91721527    -0.55900
C377        C  0.33507246  0.39540038  0.91749727     0.77800
O378        O  0.42337249  0.31506007  0.92958851    -0.58300
O379        O  0.46467319  0.38796032  0.97073945    -0.56700
O380        O  0.44758345  0.41791263  0.87648678    -0.56700
O381        O  0.35543722  0.43006763  0.92592370    -0.55900
O382        O  0.50692773  0.52863774  0.77933164    -0.57100
C383        C  0.49807219  0.47525617  0.86227995     0.75500
O384        O  0.63272731  0.53420806  0.82629166    -0.58300
C385        C  0.53709341  0.51213304  0.76376639     0.75500
C386        C  0.54484481  0.61784676  0.82866375     0.77900
Cd387      Cd  0.55170024  0.52235217  0.82212946     1.37500
O388        O  0.49423896  0.46736359  0.83650366    -0.57100
O389        O  0.52302346  0.59673518  0.81029346    -0.55900
C390        C  0.64288232  0.49310440  0.82478738     0.77800
O391        O  0.56834420  0.59451758  0.84486714    -0.58300
O392        O  0.52515814  0.50569669  0.86929649    -0.56700
O393        O  0.57143265  0.49679736  0.77550604    -0.56700
O394        O  0.61075031  0.46560772  0.82314976    -0.55900
O395        O  0.50399963  0.53524700  0.72126096    -0.57100
C396        C  0.49732773  0.48630338  0.63370171     0.75500
O397        O  0.55017203  0.61665024  0.66324738    -0.58300
C398        C  0.53514997  0.51492743  0.73349552     0.75500
C399        C  0.63801607  0.53148219  0.67111626     0.77900
Cd400      Cd  0.54298295  0.53697294  0.67580553     1.37500
O401        O  0.49432576  0.47627507  0.65916309    -0.57100
O402        O  0.61346672  0.49772761  0.66623946    -0.55900
C403        C  0.51367422  0.62830961  0.67458312     0.77800
O404        O  0.61833277  0.56799269  0.67670524    -0.58300
O405        O  0.52205238  0.51916173  0.62756460    -0.56700
O406        O  0.56705986  0.50082392  0.71855517    -0.56700
O407        O  0.49005057  0.59739004  0.68491624    -0.55900
O408        O  0.47692357  0.47028887  0.58684022    -0.57100
C409        C  0.43935120  0.42182478  0.51281788     0.75500
O410        O  0.38744224  0.34175807  0.57363123    -0.58300
C411        C  0.47250065  0.46169007  0.61244281     0.75500
C412        C  0.32943181  0.44167712  0.57706320     0.77900
Cd413      Cd  0.42072882  0.41559458  0.57115722     1.37500
O414        O  0.41213938  0.44808393  0.52472103    -0.57100
O415        O  0.35960205  0.47058348  0.57262468    -0.55900
C416        C  0.42362648  0.32080946  0.57702046     0.77800
O417        O  0.34179611  0.40168794  0.58058023    -0.58300
O418        O  0.46163947  0.39620061  0.52824009    -0.56700
O419        O  0.44489405  0.43139104  0.61889668    -0.56700
O420        O  0.45904302  0.34399709  0.57874269    -0.55900
O421        O  0.96107981  0.01594271  0.85116117    -0.57100
C422        C  0.96990995  0.97087597  0.76684526     0.75500
O423        O  0.83494745  0.02311805  0.80434902    -0.58300
C424        C  0.92760749  0.00849331  0.86673264     0.75500
C425        C  0.92029109  0.11265355  0.80192244     0.77900
Cd426      Cd  0.91577927  0.01677980  0.80782242     1.37500
O427        O  0.97101504  0.95998303  0.79224873    -0.57100
O428        O  0.94728249  0.09153271  0.81714237    -0.55900
C429        C  0.82737557  0.98147871  0.80252282     0.77800
O430        O  0.89292948  0.08919006  0.78804529    -0.58300
O431        O  0.94545390  0.00375573  0.76068942    -0.56700
O432        O  0.89073064  0.00128956  0.85487734    -0.56700
O433        O  0.86108503  0.95592892  0.80188361    -0.55900
O434        O  0.99228386  0.95643841  0.71992363    -0.57100
C435        C  0.03320114  0.91295071  0.64380523     0.75500
O436        O  0.11698407  0.86706620  0.70722406    -0.58300
C437        C  0.99477864  0.94611749  0.74534938     0.75500
C438        C  0.01436023  0.80383035  0.70456682     0.77900
Cd439      Cd  0.04122385  0.89591604  0.70244967     1.37500
O440        O  0.00480423  0.88884713  0.65623971    -0.57100
O441        O  0.98731150  0.83460932  0.69821832    -0.55900
C442        C  0.13629682  0.90483029  0.70730730     0.77800
O443        O  0.05354851  0.81574381  0.71117505    -0.58300
O444        O  0.06173369  0.93269755  0.65879364    -0.56700
O445        O  0.01900597  0.91289927  0.75116784    -0.56700
O446        O  0.11131987  0.93900527  0.70677892    -0.55900
O447        O  0.98454038  0.51465024  0.58590771    -0.57100
C448        C  0.04076287  0.47735079  0.00884420     0.75500
O449        O  0.08442813  0.60112217  0.55557722    -0.58300
C450        C  0.00207062  0.51320669  0.60977977     0.75500
C451        C  0.14527137  0.49460686  0.56993536     0.77900
Cd452      Cd  0.05578328  0.52457883  0.56029167     1.37500
O453        O  0.03116924  0.46005478  0.53209839    -0.57100
O454        O  0.11399708  0.46756666  0.56418152    -0.55900
C455        C  0.04688132  0.61881907  0.55080022     0.77800
O456        O  0.13487470  0.53556804  0.57242404    -0.58300
O457        O  0.05413469  0.51754771  0.00916714    -0.56700
O458        O  0.04422741  0.51401496  0.61067115    -0.56700
O459        O  0.01352706  0.59277742  0.54966354    -0.55900
O460        O  0.04627565  0.46861170  0.95945826    -0.57100
C461        C  0.00119376  0.41431204  0.88269133     0.75500
O462        O  0.11930262  0.36000809  0.92368458    -0.58300
C463        C  0.03951494  0.45103451  0.98301267     0.75500
C464        C  0.01287973  0.30952590  0.94605466     0.77900
Cd465      Cd  0.04785644  0.39660890  0.93350675     1.37500
O466        O  0.98656441  0.42854645  0.90589036    -0.57100
O467        O  0.98758371  0.34172058  0.93962587    -0.55900
C468        C  0.14262252  0.39537426  0.92356509     0.77800
O469        O  0.05416221  0.31815181  0.94803587    -0.58300
O470        O  0.03906280  0.39576147  0.88267026    -0.56700
O471        O  0.03423149  0.40904435  0.98342588    -0.56700
O472        O  0.12178602  0.43189288  0.92701137    -0.55900
O473        O  0.98858513  0.40127901  0.83431864    -0.57100
C474        C  0.93161846  0.44981703  0.76020511     0.75500
O475        O  0.89762643  0.32621718  0.82639042    -0.58300
C476        C  0.97386733  0.41527315  0.85756512     0.75500
C477        C  0.82464836  0.42999711  0.81916544     0.77900
Cd478      Cd  0.91535822  0.40210154  0.81107584     1.37500
O479        O  0.94189730  0.46649251  0.78362003    -0.57100
O480        O  0.83383644  0.39027786  0.81180175    -0.55900
C481        C  0.91905411  0.30626775  0.80717637     0.77800
O482        O  0.85721636  0.45589839  0.82393129    -0.58300
O483        O  0.91732295  0.40996261  0.76007444    -0.56700
O484        O  0.93326714  0.42664081  0.85862482    -0.56700
O485        O  0.93945185  0.33077846  0.78981765    -0.55900
O486        O  0.92729153  0.45885197  0.71093454    -0.57100
C487        C  0.97504807  0.51411613  0.63528440     0.75500
O488        O  0.84962206  0.56203509  0.68889919    -0.58300
C489        C  0.93310861  0.47636403  0.73472312     0.75500
C490        C  0.95540134  0.62067382  0.69490579     0.77900
Cd491      Cd  0.92506928  0.53083757  0.68575885     1.37500
O492        O  0.99229827  0.50879132  0.65899192    -0.57100
O493        O  0.97979927  0.58735495  0.70042178    -0.55900
C494        C  0.83003074  0.52802389  0.67880175     0.77800
O495        O  0.91660338  0.61247727  0.68582350    -0.58300
O496        O  0.93390345  0.52334380  0.63479289    -0.56700
O497        O  0.93759928  0.51843124  0.73566771    -0.56700
O498        O  0.85437563  0.49509711  0.67180976    -0.55900
O499        O  0.99870817  0.96494817  0.54054418    -0.57100
C500        C  0.03610571  0.91461912  0.61341995     0.75500
O501        O  0.08180523  0.83060290  0.54863929    -0.58300
C502        C  0.00154407  0.95712672  0.51468737     0.75500
C503        C  0.14280709  0.93692881  0.54791111     0.77900
Cd504      Cd  0.05238415  0.90688663  0.55431015     1.37500
O505        O  0.00804781  0.89532119  0.59778747    -0.57100
O506        O  0.11187239  0.96285045  0.55600710    -0.55900
C507        C  0.04420293  0.81143607  0.54672975     0.77800
O508        O  0.13152722  0.89736501  0.54124238    -0.58300
O509        O  0.06926510  0.93257627  0.60162603    -0.56700
O510        O  0.02743813  0.92593411  0.00707899    -0.56700
O511        O  0.01022005  0.83662175  0.54724536    -0.55900
O512        O  0.97788523  0.97448289  0.96871357    -0.57100
C513        C  0.92957189  0.01203699  0.89707164     0.75500
O514        O  0.84937840  0.06135450  0.95852069    -0.58300
C515        C  0.97614747  0.98305305  0.49453666     0.75500
C516        C  0.95387945  0.12658288  0.95626935     0.77900
Cd517      Cd  0.92593869  0.03436880  0.95518280     1.37500
O518        O  0.96496489  0.02256259  0.90989264    -0.57100
O519        O  0.96793443  0.09882367  0.93830390    -0.55900
C520        C  0.83172318  0.02363056  0.96345035     0.77800
O521        O  0.92774890  0.11167170  0.97483057    -0.58300
O522        O  0.89439247  0.00814673  0.91149570    -0.56700
O523        O  0.95146575  0.01521117  0.50214368    -0.56700
O524        O  0.85800019  0.99069710  0.96589994    -0.55900
O525        O  0.54008794  0.96173666  0.91964030    -0.57100
C526        C  0.49648558  0.02118183  0.49636553     0.75500
O527        O  0.62353800  0.06030132  0.94874735    -0.58300
C528        C  0.53544645  0.98001653  0.89616570     0.75500
C529        C  0.52155584  0.12348525  0.93593918     0.77900
Cd530      Cd  0.54701155  0.03291373  0.94609581     1.37500
O531        O  0.48051453  0.01082734  0.97283033    -0.57100
O532        O  0.49304751  0.09352763  0.94160729    -0.55900
C533        C  0.64040797  0.02388088  0.95687725     0.77800
O534        O  0.56198492  0.11128531  0.93440916    -0.58300
O535        O  0.53695577  0.03328127  0.49695332    -0.56700
O536        O  0.53322790  0.02224609  0.89599983    -0.56700
O537        O  0.61387380  0.99133831  0.96057037    -0.55900
O538        O  0.48483945  0.02906253  0.54533847    -0.57100
C539        C  0.42817195  0.98344696  0.61958680     0.75500
O540        O  0.38055253  0.10899851  0.56906050    -0.58300
C541        C  0.46858908  0.02211746  0.52142917     0.75500
C542        C  0.32291099  0.00356644  0.55726025     0.77900
Cd543      Cd  0.41178889  0.03317294  0.56942715     1.37500
O544        O  0.43244056  0.96592335  0.59570600    -0.57100
O545        O  0.35699045  0.98073267  0.55066354    -0.55900
C546        C  0.41681661  0.12839757  0.57526650     0.77800
O547        O  0.32981171  0.04134886  0.56865172    -0.58300
O548        O  0.41887075  0.02469384  0.62048794    -0.56700
O549        O  0.42663181  0.01853972  0.51992937    -0.56700
O550        O  0.45044531  0.10376155  0.57940210    -0.55900
O551        O  0.48755692  0.92727758  0.72155229    -0.57100
C552        C  0.43081426  0.95649090  0.64482697     0.75500
O553        O  0.41653959  0.82014286  0.69422223    -0.58300
C554        C  0.46976876  0.91847419  0.74484074     0.75500
C555        C  0.32831502  0.90499937  0.69942133     0.77900
Cd556      Cd  0.42335430  0.90145897  0.69342766     1.37500
O557        O  0.42813118  0.97386111  0.66890395    -0.57100
O558        O  0.35242946  0.93894675  0.70447751    -0.55900
C559        C  0.45440060  0.81184837  0.68356665     0.77800
O560        O  0.34808931  0.86954100  0.69175541    -0.58300
O561        O  0.43325849  0.91425775  0.64343948    -0.56700
O562        O  0.42964316  0.90543073  0.74450120    -0.56700
O563        O  0.47776558  0.84522212  0.67624157    -0.55900
O564        O  0.47863392  0.90747307  0.79367052    -0.57100
C565        C  0.53598998  0.95397700  0.87020437     0.75500
O566        O  0.56982504  0.82896368  0.80720289    -0.58300
C567        C  0.49549959  0.91939021  0.77066833     0.75500
C568        C  0.64294120  0.92773323  0.81045143     0.77900
Cd569      Cd  0.55051208  0.90588342  0.81882079     1.37500
O570        O  0.52824443  0.97187018  0.84691645    -0.57100
O571        O  0.61316228  0.95769376  0.81168773    -0.55900
C572        C  0.54484895  0.81085860  0.82523868     0.77800
O573        O  0.62978045  0.88767157  0.81273318    -0.58300
O574        O  0.54711958  0.91315777  0.86984927    -0.56700
O575        O  0.53662566  0.92876522  0.77058883    -0.56700
O576        O  0.52129240  0.83684258  0.84026013    -0.55900
C577        C  0.71095560  0.05090772  0.97873000    -0.01100
C578        C  0.68885491  0.01981592  0.96134176     0.08500
C579        C  0.71356760  0.98678777  0.94682601    -0.01300
C580        C  0.76051240  0.98637858  0.94857207    -0.01300
C581        C  0.78272960  0.01870064  0.96516649     0.08700
C582        C  0.75769346  0.04972246  0.98107181    -0.01500
Br583      Br  0.78737830  0.08980599  0.50681131    -0.01600
Br584      Br  0.67730190  0.09552967  0.49927397    -0.00100
Br585      Br  0.79403384  0.94385646  0.92625384     0.00000
Br586      Br  0.68356697  0.94486197  0.92232945     0.00000
C587        C  0.22277874  0.92641606  0.56112692    -0.01100
C588        C  0.18983604  0.95196273  0.54756251     0.08500
C589        C  0.20121627  0.99389430  0.53608120    -0.01300
C590        C  0.24484779  0.01095003  0.53903051    -0.01300
C591        C  0.27744532  0.98575902  0.55307632     0.08700
C592        C  0.26637147  0.94337647  0.56395268    -0.01500
Br593      Br  0.30983632  0.91013832  0.58514031     0.00000
Br594      Br  0.20792804  0.86961439  0.57793034    -0.00100
Br595      Br  0.25987742  0.06852555  0.52344539     0.00000
Br596      Br  0.15741881  0.02736130  0.51541006     0.00000
C597        C  0.95581633  0.19883713  0.93089507    -0.01100
C598        C  0.96664567  0.17415682  0.95483125     0.08500
C599        C  0.99145400  0.19434420  0.97641008    -0.01300
C600        C  0.00606934  0.23903020  0.97385228    -0.01300
C601        C  0.99539263  0.26371447  0.94982671     0.08700
C602        C  0.96987316  0.24359143  0.92845090    -0.01500
Br603      Br  0.95663923  0.27599377  0.89475222     0.00000
Br604      Br  0.92170392  0.17120952  0.90124683    -0.00100
Br605      Br  0.04028033  0.26643405  0.00343670     0.00000
Br606      Br  0.00782701  0.15985292  0.50862451     0.00000
C607        C  0.01288620  0.69197833  0.56485509    -0.01100
C608        C  0.04230875  0.66763297  0.54742679     0.08500
C609        C  0.06899242  0.69030106  0.52779496    -0.01300
C610        C  0.06825829  0.73741050  0.52669398    -0.01300
C611        C  0.04051460  0.76204093  0.54511889     0.08700
C612        C  0.01169769  0.73905581  0.56356951    -0.01500
Br613      Br  0.97258949  0.77164579  0.58865558     0.00000
Br614      Br  0.97662947  0.66120327  0.59213525    -0.00100
Br615      Br  0.10418669  0.76789667  0.49918178     0.00000
Br616      Br  0.10546870  0.65656909  0.50177601     0.00000
C617        C  0.20751016  0.93594723  0.68743166    -0.01100
C618        C  0.18556516  0.90825796  0.70703213     0.08500
C619        C  0.21098163  0.88058466  0.72460392    -0.01300
C620        C  0.25769759  0.87890208  0.72170643    -0.01300
C621        C  0.27943842  0.90661742  0.70227873     0.08700
C622        C  0.25442650  0.93535621  0.68528274    -0.01500
Br623      Br  0.28437269  0.97104071  0.65737031     0.00000
Br624      Br  0.17383039  0.97225979  0.66187680    -0.00100
Br625      Br  0.29195171  0.83835126  0.74430858     0.00000
Br626      Br  0.18219967  0.84643052  0.75364607     0.00000
C627        C  0.02452526  0.72592173  0.68623205    -0.01100
C628        C  0.00093180  0.75631588  0.70351215     0.08500
C629        C  0.96292814  0.74176599  0.71840939    -0.01300
C630        C  0.94840982  0.69706605  0.71595088    -0.01300
C631        C  0.97163794  0.66691181  0.69843143     0.08700
C632        C  0.00971967  0.68133058  0.68358393    -0.01500
Br633      Br  0.03960697  0.64090027  0.65795835     0.00000
Br634      Br  0.07523257  0.74594886  0.66454519    -0.00100
Br635      Br  0.89737581  0.67676897  0.73718218     0.00000
Br636      Br  0.93135180  0.78274867  0.74278765     0.00000
C637        C  0.96005723  0.23356446  0.80089615    -0.01100
C638        C  0.91947738  0.25682848  0.80493781     0.08500
C639        C  0.87899117  0.23267638  0.80681112    -0.01300
C640        C  0.87916134  0.18556501  0.80526599    -0.01300
C641        C  0.91978461  0.16223061  0.80134182     0.08700
C642        C  0.96010125  0.18646869  0.79869121    -0.01500
Br643      Br  0.01534850  0.15539486  0.79078752     0.00000
Br644      Br  0.01613841  0.26570553  0.80016060    -0.00100
Br645      Br  0.82358310  0.15336124  0.81010058     0.00000
Br646      Br  0.82272260  0.26401434  0.81060698     0.00000
C647        C  0.76831267  0.93051075  0.82130550    -0.01100
C648        C  0.78129122  0.96398928  0.80227662     0.08500
C649        C  0.74916735  0.98365826  0.78485350    -0.01300
C650        C  0.70399771  0.97114613  0.78709109    -0.01300
C651        C  0.69066505  0.93900521  0.80691392     0.08700
C652        C  0.72303936  0.91848380  0.82388060    -0.01500
Br653      Br  0.70536045  0.87713008  0.85273822     0.00000
Br654      Br  0.81175668  0.90314508  0.84548372    -0.00100
Br655      Br  0.66081829  0.99768892  0.76242230     0.00000
Br656      Br  0.76719965  0.02691125  0.75720725     0.00000
C657        C  0.45150609  0.24721306  0.55935202    -0.01100
C658        C  0.42413064  0.27160156  0.57804045     0.08500
C659        C  0.39473584  0.24883266  0.59614909    -0.01300
C660        C  0.39278433  0.20176859  0.59558083    -0.01300
C661        C  0.42003534  0.17746859  0.57683537     0.08700
C662        C  0.44947610  0.20017959  0.55878755    -0.01500
Br663      Br  0.48459372  0.16700525  0.53175984     0.00000
Br664      Br  0.48892338  0.27805683  0.53273218    -0.00100
Br665      Br  0.35365171  0.17056906  0.62101099     0.00000
Br666      Br  0.35763665  0.28198616  0.62213211     0.00000
C667        C  0.25605685  0.43919234  0.55350112    -0.01100
C668        C  0.28188924  0.45335510  0.57636865     0.08500
C669        C  0.26248359  0.47910698  0.59787645    -0.01300
C670        C  0.21720645  0.49144607  0.59629874    -0.01300
C671        C  0.19181133  0.47922939  0.57271773     0.08700
C672        C  0.21137386  0.45294391  0.55131656    -0.01500
Br673      Br  0.17838689  0.43829169  0.51792417     0.00000
Br674      Br  0.28240031  0.40183278  0.52470950    -0.00100
Br675      Br  0.18949550  0.52284031  0.62712651     0.00000
Br676      Br  0.29770732  0.49591433  0.62984773     0.00000
C677        C  0.70852801  0.49411409  0.68628736    -0.01100
C678        C  0.68721306  0.52842747  0.67122683     0.08500
C679        C  0.71310222  0.56135378  0.65768900    -0.01300
C680        C  0.75989921  0.56100021  0.66006368    -0.01300
C681        C  0.78113009  0.52708248  0.67537229     0.08700
C682        C  0.75543701  0.49307021  0.68795748    -0.01500
Br683      Br  0.78420717  0.44621924  0.70879359     0.00000
Br684      Br  0.67380868  0.45034412  0.70658504    -0.00100
Br685      Br  0.79502900  0.60614907  0.64135624     0.00000
Br686      Br  0.68475175  0.60591828  0.63478141     0.00000
C687        C  0.48514488  0.69315021  0.70253664    -0.01100
C688        C  0.49972240  0.67567320  0.67660754     0.08500
C689        C  0.50102902  0.70363984  0.65302453    -0.01300
C690        C  0.48612229  0.74832366  0.65514503    -0.01300
C691        C  0.47081881  0.76541463  0.68095770     0.08700
C692        C  0.47098555  0.73790051  0.70469900    -0.01500
Br693      Br  0.45420307  0.76217345  0.74074731     0.00000
Br694      Br  0.48708902  0.65693993  0.73578304    -0.00100
Br695      Br  0.48419372  0.78515162  0.62230309     0.00000
Br696      Br  0.52147635  0.68050663  0.61749011     0.00000
C697        C  0.50337075  0.69085112  0.82870787    -0.01100
C698        C  0.54418240  0.66729875  0.83029725     0.08500
C699        C  0.58482700  0.69127574  0.83186215    -0.01300
C700        C  0.58469536  0.73832578  0.83104647    -0.01300
C701        C  0.54406287  0.76177868  0.82853981     0.08700
C702        C  0.50330895  0.73802090  0.82797745    -0.01500
Br703      Br  0.44739955  0.76978592  0.82484362     0.00000
Br704      Br  0.44725448  0.65879198  0.82808839    -0.00100
Br705      Br  0.64050897  0.77062498  0.83415617     0.00000
Br706      Br  0.64139345  0.66012205  0.83317445     0.00000
C707        C  0.76493394  0.48216881  0.80429694    -0.01100
C708        C  0.77832549  0.44610234  0.82104576     0.08500
C709        C  0.74750854  0.42568474  0.83923400    -0.01300
C710        C  0.70340609  0.44178711  0.84100305    -0.01300
C711        C  0.68981491  0.47788158  0.82418937     0.08700
C712        C  0.72080520  0.49807014  0.80582124    -0.01500
Br713      Br  0.70269605  0.54574482  0.78132306     0.00000
Br714      Br  0.80644401  0.50791069  0.77782224    -0.00100
Br715      Br  0.66248819  0.41577984  0.86763058     0.00000
Br716      Br  0.76611116  0.37654748  0.86235856     0.00000
C717        C  0.26356543  0.36216684  0.93413806    -0.01100
C718        C  0.28592947  0.39334305  0.91711324     0.08500
C719        C  0.26129802  0.42405526  0.90127886    -0.01300
C720        C  0.21428925  0.42411649  0.90275472    -0.01300
C721        C  0.19180012  0.39383692  0.92049063     0.08700
C722        C  0.21668477  0.36264418  0.93606114    -0.01500
Br723      Br  0.18732615  0.32259789  0.96186999     0.00000
Br724      Br  0.29730525  0.32045392  0.95630717    -0.00100
Br725      Br  0.18103789  0.46451213  0.87949435     0.00000
Br726      Br  0.29213240  0.46502221  0.87686503     0.00000
C727        C  0.51788165  0.25011444  0.94178182    -0.01100
C728        C  0.48067206  0.25996695  0.92498237     0.08500
C729        C  0.45780494  0.22501416  0.91112924    -0.01300
C730        C  0.47202764  0.18042877  0.91405308    -0.01300
C731        C  0.50821993  0.17042760  0.93163390     0.08700
C732        C  0.53086437  0.20533962  0.94569729    -0.01500
Br733      Br  0.57683010  0.19181150  0.97249223     0.00000
Br734      Br  0.54973704  0.29752557  0.96085817    -0.00100
Br735      Br  0.44265153  0.13333480  0.89314737     0.00000
Br736      Br  0.40764202  0.23817063  0.88742286     0.00000
loop_ 
_geom_bond_atom_site_label_1 
_geom_bond_atom_site_label_2 
_geom_bond_distance 
_geom_bond_site_symmetry_2 
_ccdc_geom_bond_type 
O1            C4   1.263       .  A
O1           Cd6   2.451       .  S
C2           O11   1.262       .  A
C2            O7   1.263       .  A
C2          C409   1.458       .  S
O3            C9   1.264       .  A
O3           Cd6   2.458       .  S
C4           O12   1.264       .  A
C4           C15   1.460       .  S
C5           O10   1.265       .  A
C5            O8   1.267       .  A
C5          C360   1.474       .  S
Cd6          O13   2.457       .  S
Cd6          O12   2.464       .  S
Cd6          O11   2.457       .  S
Cd6           O7   2.457       .  S
Cd6          O10   2.439       .  S
Cd6           O8   2.465       .  S
C9           O13   1.264       .  A
C9          C350   1.472       .  S
O14          C17   1.267       .  A
O14         Cd19   2.468       .  S
C15          O24   1.261       .  A
C15          O20   1.264       .  A
O16          C22   1.265       .  A
O16         Cd19   2.459       .  S
C17          O25   1.263       .  A
C17          C30   1.458       .  S
C18          O23   1.265       .  A
C18          O21   1.264       .  A
C18         C330   1.477       .  S
Cd19         O26   2.451       .  S
Cd19         O25   2.429       .  S
Cd19         O24   2.450       .  S
Cd19         O20   2.474       .  S
Cd19         O23   2.457       .  S
Cd19         O21   2.453       .  S
C22          O26   1.265       .  A
C22         C343   1.477       .  S
O27          C30   1.263       .  A
O27         Cd32   2.470       .  S
C28          O37   1.263       .  A
C28          O33   1.263       .  A
C28          C43   1.458       .  S
O29          C35   1.266       .  A
O29         Cd32   2.466       .  S
C30          O38   1.262       .  A
C31          O36   1.265       .  A
C31          O34   1.267       .  A
C31         C310   1.475       .  S
Cd32         O39   2.437       .  S
Cd32         O38   2.439       .  S
Cd32         O37   2.456       .  S
Cd32         O33   2.453       .  S
Cd32         O36   2.436       .  S
Cd32         O34   2.454       .  S
C35          O39   1.264       .  A
C35         C320   1.477       .  S
O40          C43   1.264       .  A
O40         Cd45   2.458       .  S
C41          O50   1.263       .  A
C41          O46   1.262       .  A
C41         C370   1.458   1_554  S
O42          C48   1.263       .  A
O42         Cd45   2.420       .  S
C43          O51   1.263       .  A
C44          O49   1.263       .  A
C44          O47   1.266       .  A
C44         C300   1.466       .  S
Cd45         O52   2.457       .  S
Cd45         O51   2.449       .  S
Cd45         O50   2.456       .  S
Cd45         O46   2.453       .  S
Cd45         O49   2.438       .  S
Cd45         O47   2.460       .  S
C48          O52   1.267       .  A
C48         C290   1.469       .  S
O53          C56   1.267       .  A
O53         Cd58   2.490       .  S
C54          O63   1.263   1_565  A
C54          O59   1.265       .  A
C54          C69   1.465       .  S
O55          C61   1.265   1_545  A
O55         Cd58   2.434       .  S
C56          O64   1.262       .  A
C56         C145   1.461       .  S
C57          O62   1.265       .  A
C57          O60   1.265       .  A
C57         C273   1.480       .  S
Cd58         O65   2.458   1_545  S
Cd58         O64   2.424       .  S
Cd58         O63   2.454       .  S
Cd58         O59   2.478   1_545  S
Cd58         O62   2.466       .  S
Cd58         O60   2.458       .  S
C61          O65   1.266       .  A
C61         C280   1.474       .  S
O66          C69   1.264       .  A
O66         Cd71   2.466   1_655  S
C67          O76   1.262       .  A
C67          O72   1.263       .  A
C67         C132   1.462       .  S
O68          C74   1.265       .  A
O68         Cd71   2.439       .  S
C69          O77   1.263   1_655  A
C70          O75   1.266       .  A
C70          O73   1.266   1_455  A
C70         C260   1.473       .  S
Cd71         O78   2.467       .  S
Cd71         O77   2.477       .  S
Cd71         O76   2.448       .  S
Cd71         O72   2.484       .  S
Cd71         O75   2.461       .  S
Cd71         O73   2.445   1_455  S
C74          O78   1.266       .  A
C74         C250   1.478       .  S
O79          C82   1.264   1_655  A
O79         Cd84   2.474   1_655  S
C80          O89   1.264       .  A
C80         O453   1.265       .  A
C80          C95   1.463       .  S
O81          C87   1.265       .  A
O81         Cd84   2.450       .  S
C82          O90   1.263       .  A
C82         C119   1.464   1_455  S
C83          O88   1.266       .  A
C83          O86   1.265       .  A
C83         C303   1.474       .  S
Cd84         O91   2.456       .  S
Cd84         O90   2.464       .  S
Cd84         O85   2.458       .  S
Cd84         O88   2.461       .  S
Cd84         O86   2.446       .  S
Cd84        O457   2.463       .  S
O85         C448   1.265       .  A
C87          O91   1.265       .  A
C87         C240   1.473       .  S
O89        Cd452   2.463       .  S
O92          C95   1.265       .  A
O92         Cd97   2.475       .  S
C93         O102   1.262       .  A
C93          O98   1.265   1_455  A
C93         C108   1.462   1_455  S
O94         C100   1.264       .  A
O94         Cd97   2.445       .  S
C95         O103   1.263       .  A
C96         O101   1.265       .  A
C96          O99   1.265   1_455  A
C96         C233   1.475   1_455  S
Cd97        O104   2.468       .  S
Cd97        O103   2.454       .  S
Cd97        O102   2.456       .  S
Cd97         O98   2.467   1_455  S
Cd97        O101   2.456       .  S
Cd97         O99   2.452   1_455  S
C100        O104   1.266       .  A
C100        C353   1.479       .  S
O105        C108   1.265       .  A
O105       Cd110   2.465       .  S
C106        O115   1.263       .  A
C106        O111   1.265       .  A
C106        C121   1.463       .  S
O107        C113   1.266       .  A
O107       Cd110   2.443       .  S
C108        O116   1.263       .  A
C109        O114   1.263       .  A
C109        O112   1.264       .  A
C109        C340   1.470       .  S
Cd110       O117   2.460       .  S
Cd110       O116   2.453       .  S
Cd110       O115   2.462       .  S
Cd110       O111   2.466       .  S
Cd110       O114   2.443       .  S
Cd110       O112   2.465       .  S
C113        O117   1.267       .  A
C113        C270   1.478       .  S
O118        C121   1.265       .  A
O118       Cd123   2.474       .  S
C119        O128   1.263       .  A
C119        O124   1.264       .  A
O120        C126   1.265       .  A
O120       Cd123   2.447       .  S
C121        O129   1.263       .  A
C122        O127   1.265       .  A
C122        O125   1.265       .  A
C122        C263   1.471       .  S
Cd123       O130   2.461       .  S
Cd123       O129   2.458       .  S
Cd123       O128   2.468       .  S
Cd123       O124   2.469       .  S
Cd123       O127   2.449       .  S
Cd123       O125   2.450       .  S
C126        O130   1.266       .  A
C126        C313   1.474       .  S
O131        C134   1.264   1_655  A
O131       Cd136   2.461   1_655  S
C132        O141   1.261       .  A
C132        O137   1.264       .  A
O133        C139   1.265       .  A
O133       Cd136   2.454       .  S
C134        O510   1.263       .  A
C134        C147   1.461   1_454  S
C135        O140   1.266       .  A
C135        O138   1.265       .  A
C135        C220   1.476       .  S
Cd136       O143   2.467       .  S
Cd136       O141   2.446       .  S
Cd136       O137   2.493       .  S
Cd136       O140   2.463       .  S
Cd136       O138   2.440       .  S
Cd136       O510   2.462       .  S
C139        O143   1.266       .  A
C139        C243   1.479       .  S
O142        C502   1.263       .  A
O142       Cd504   2.462       .  S
O144        C515   1.264       .  A
O144       Cd149   2.464   1_565  S
C145        O154   1.263       .  A
C145        O150   1.266       .  A
O146        C152   1.266       .  A
O146       Cd149   2.434       .  S
C147        O155   1.262   1_566  A
C147        O512   1.264       .  A
C148        O153   1.265       .  A
C148        O151   1.262       .  A
C148        C230   1.471       .  S
Cd149       O156   2.467   1_545  S
Cd149       O154   2.428       .  S
Cd149       O150   2.485       .  S
Cd149       O153   2.485       .  S
Cd149       O151   2.437       .  S
Cd149       O523   2.456       .  S
C152        O156   1.266   1_545  A
C152        C213   1.475       .  S
O155       Cd517   2.456   1_554  S
O157        C160   1.264       .  A
O157       Cd162   2.474   1_565  S
C158        O167   1.264       .  A
C158        O531   1.265       .  A
C158        C173   1.461   1_556  S
O159        C165   1.265       .  A
O159       Cd162   2.434       .  S
C160        O168   1.262   1_565  A
C160        C197   1.463       .  S
C161        O166   1.266       .  A
C161        O164   1.265       .  A
C161        C363   1.474       .  S
Cd162       O169   2.463   1_545  S
Cd162       O168   2.460       .  S
Cd162       O163   2.454       .  S
Cd162       O166   2.449       .  S
Cd162       O164   2.439       .  S
Cd162       O535   2.458       .  S
O163        C526   1.265       .  A
C165        O169   1.266   1_545  A
C165        C210   1.472       .  S
O167       Cd530   2.458       .  S
O170        C173   1.264       .  A
O170       Cd175   2.470       .  S
C171        O180   1.263   1_565  A
C171        O176   1.262       .  A
C171        C184   1.462       .  S
O172        C178   1.265       .  A
O172       Cd175   2.450       .  S
C173        O181   1.262       .  A
C174        O179   1.266       .  A
C174        O177   1.265   1_545  A
C174        C223   1.474   1_545  S
Cd175       O182   2.446       .  S
Cd175       O181   2.451       .  S
Cd175       O180   2.477       .  S
Cd175       O176   2.460   1_545  S
Cd175       O179   2.467       .  S
Cd175       O177   2.436   1_545  S
C178        O182   1.265       .  A
C178        C293   1.468       .  S
O183        C186   1.265       .  A
O183       Cd188   2.473       .  S
C184        O193   1.263       .  A
C184        O189   1.265       .  A
O185        C191   1.265       .  A
O185       Cd188   2.435       .  S
C186        O194   1.262       .  A
C186        C199   1.463       .  S
C187        O192   1.264       .  A
C187        O190   1.265       .  A
C187        C253   1.469       .  S
Cd188       O195   2.474       .  S
Cd188       O194   2.462       .  S
Cd188       O193   2.449       .  S
Cd188       O189   2.472       .  S
Cd188       O192   2.445       .  S
Cd188       O190   2.455       .  S
C191        O195   1.267       .  A
C191        C323   1.475       .  S
O196        C199   1.265       .  A
O196       Cd201   2.473       .  S
C197        O206   1.263       .  A
C197        O202   1.266       .  A
O198        C204   1.265       .  A
O198       Cd201   2.427       .  S
C199        O207   1.262       .  A
C200        O205   1.263       .  A
C200        O203   1.264       .  A
C200        C283   1.476       .  S
Cd201       O208   2.467       .  S
Cd201       O207   2.457       .  S
Cd201       O206   2.459       .  S
Cd201       O202   2.468       .  S
Cd201       O205   2.450       .  S
Cd201       O203   2.452       .  S
C204        O208   1.267       .  A
C204        C333   1.474       .  S
C209        C210   1.409       .  A
C209        C214   1.404       .  A
C209       Br584   1.932       .  S
C210        C211   1.410   1_545  A
C211        C212   1.408       .  A
C211       Br218   1.933       .  S
C212        C213   1.413   1_565  A
C212       Br217   1.933       .  S
C213        C214   1.409       .  A
C214       Br583   1.931       .  S
Br215       C582   1.931   1_554  S
Br216       C577   1.932       .  S
C219        C220   1.412       .  A
C219        C224   1.405       .  A
C219       Br226   1.933       .  S
C220        C221   1.412       .  A
C221        C222   1.408   1_565  A
C221       Br228   1.933   1_565  S
C222        C223   1.410   1_545  A
C222       Br227   1.931       .  S
C223        C224   1.410       .  A
C224       Br225   1.935       .  S
C229        C230   1.409       .  A
C229        C234   1.405       .  A
C229       Br236   1.934       .  S
C230        C231   1.408       .  A
C231        C232   1.408   1_655  A
C231       Br606   1.930   1_655  S
C232        C233   1.412   1_455  A
C232       Br237   1.931       .  S
C233        C234   1.412       .  A
C234       Br235   1.935       .  S
Br238       C599   1.930   1_454  S
C239        C240   1.410       .  A
C239        C244   1.407       .  A
C239       Br246   1.933   1_455  S
C240        C241   1.408       .  A
C241        C242   1.407       .  A
C241       Br248   1.932       .  S
C242        C243   1.413       .  A
C242       Br247   1.931   1_554  S
C243        C244   1.413       .  A
C244       Br245   1.933   1_455  S
C249        C250   1.415       .  A
C249        C254   1.407       .  A
C249       Br256   1.932       .  S
C250        C251   1.412       .  A
C251        C252   1.405       .  A
C251       Br258   1.932       .  S
C252        C253   1.407       .  A
C252       Br257   1.931       .  S
C253        C254   1.408       .  A
C254       Br255   1.934       .  S
C259        C260   1.412       .  A
C259        C264   1.406       .  A
C259       Br266   1.932       .  S
C260        C261   1.410   1_455  A
C261        C262   1.406       .  A
C261       Br268   1.930       .  S
C262        C263   1.408       .  A
C262       Br267   1.931       .  S
C263        C264   1.409   1_655  A
C264       Br265   1.933       .  S
C269        C270   1.412       .  A
C269        C274   1.408       .  A
C269       Br276   1.932   1_655  S
C270        C271   1.411       .  A
C271        C272   1.407       .  A
C271       Br278   1.935       .  S
C272        C273   1.413       .  A
C272       Br277   1.933       .  S
C273        C274   1.411       .  A
C274       Br275   1.931   1_655  S
C279        C280   1.412       .  A
C279        C284   1.406       .  A
C279       Br286   1.934       .  S
C280        C281   1.410       .  A
C281        C282   1.406       .  A
C281       Br288   1.933   1_565  S
C282        C283   1.412       .  A
C282       Br287   1.933       .  S
C283        C284   1.413       .  A
C284       Br285   1.934       .  S
C289        C290   1.410       .  A
C289        C294   1.405       .  A
C289       Br296   1.932       .  S
C290        C291   1.411       .  A
C291        C292   1.405       .  A
C291       Br298   1.933       .  S
C292        C293   1.409       .  A
C292       Br297   1.931       .  S
C293        C294   1.409       .  A
C294       Br295   1.933       .  S
C299        C300   1.408       .  A
C299        C304   1.404       .  A
C299       Br306   1.934       .  S
C300        C301   1.406       .  A
C301        C302   1.407       .  A
C301       Br308   1.929       .  S
C302        C303   1.412       .  A
C302       Br307   1.929       .  S
C303        C304   1.413       .  A
C304       Br305   1.934       .  S
C309        C310   1.413       .  A
C309        C314   1.407       .  A
C309       Br316   1.934       .  S
C310        C311   1.411       .  A
C311        C312   1.406       .  A
C311       Br318   1.933       .  S
C312        C313   1.410       .  A
C312       Br317   1.931       .  S
C313        C314   1.410       .  A
C314       Br315   1.932       .  S
C319        C320   1.413       .  A
C319        C324   1.404       .  A
C319       Br326   1.936       .  S
C320        C321   1.412       .  A
C321        C322   1.409       .  A
C321       Br328   1.932       .  S
C322        C323   1.411       .  A
C322       Br327   1.930       .  S
C323        C324   1.410       .  A
C324       Br325   1.935       .  S
C329        C330   1.413       .  A
C329        C334   1.408       .  A
C329       Br336   1.931       .  S
C330        C331   1.412       .  A
C331        C332   1.405       .  A
C331       Br338   1.934       .  S
C332        C333   1.410       .  A
C332       Br337   1.933       .  S
C333        C334   1.410       .  A
C334       Br335   1.932       .  S
C339        C340   1.409       .  A
C339        C344   1.405       .  A
C339       Br346   1.935       .  S
C340        C341   1.408       .  A
C341        C342   1.407       .  A
C341       Br348   1.931       .  S
C342        C343   1.413       .  A
C342       Br347   1.932       .  S
C343        C344   1.414       .  A
C344       Br345   1.933       .  S
C349        C350   1.409       .  A
C349        C354   1.406       .  A
C349       Br356   1.934       .  S
C350        C351   1.407       .  A
C351        C352   1.408       .  A
C351       Br358   1.930       .  S
C352        C353   1.414       .  A
C352       Br357   1.931       .  S
C353        C354   1.414       .  A
C354       Br355   1.935       .  S
C359        C360   1.411       .  A
C359        C364   1.406       .  A
C359       Br366   1.932       .  S
C360        C361   1.410       .  A
C361        C362   1.406       .  A
C361       Br368   1.932       .  S
C362        C363   1.411       .  A
C362       Br367   1.933       .  S
C363        C364   1.411       .  A
C364       Br365   1.934       .  S
O369        C372   1.263       .  A
O369       Cd374   2.451       .  S
C370        O379   1.262       .  A
C370        O375   1.263       .  A
O371        C377   1.264       .  A
O371       Cd374   2.458       .  S
C372        O380   1.264       .  A
C372        C383   1.460       .  S
C373        O378   1.265       .  A
C373        O376   1.267       .  A
C373        C728   1.474       .  S
Cd374       O381   2.457       .  S
Cd374       O380   2.464       .  S
Cd374       O379   2.457       .  S
Cd374       O375   2.457       .  S
Cd374       O378   2.439       .  S
Cd374       O376   2.465       .  S
C377        O381   1.264       .  A
C377        C718   1.472       .  S
O382        C385   1.267       .  A
O382       Cd387   2.468       .  S
C383        O392   1.261       .  A
C383        O388   1.264       .  A
O384        C390   1.265       .  A
O384       Cd387   2.459       .  S
C385        O393   1.263       .  A
C385        C398   1.458       .  S
C386        O391   1.265       .  A
C386        O389   1.264       .  A
C386        C698   1.477       .  S
Cd387       O394   2.451       .  S
Cd387       O393   2.429       .  S
Cd387       O392   2.450       .  S
Cd387       O388   2.474       .  S
Cd387       O391   2.457       .  S
Cd387       O389   2.453       .  S
C390        O394   1.265       .  A
C390        C711   1.477       .  S
O395        C398   1.263       .  A
O395       Cd400   2.470       .  S
C396        O405   1.263       .  A
C396        O401   1.263       .  A
C396        C411   1.458       .  S
O397        C403   1.266       .  A
O397       Cd400   2.466       .  S
C398        O406   1.262       .  A
C399        O404   1.265       .  A
C399        O402   1.267       .  A
C399        C678   1.475       .  S
Cd400       O407   2.437       .  S
Cd400       O406   2.439       .  S
Cd400       O405   2.456       .  S
Cd400       O401   2.453       .  S
Cd400       O404   2.436       .  S
Cd400       O402   2.454       .  S
C403        O407   1.264       .  A
C403        C688   1.477       .  S
O408        C411   1.264       .  A
O408       Cd413   2.458       .  S
C409        O418   1.263       .  A
C409        O414   1.262       .  A
O410        C416   1.263       .  A
O410       Cd413   2.420       .  S
C411        O419   1.263       .  A
C412        O417   1.263       .  A
C412        O415   1.266       .  A
C412        C668   1.466       .  S
Cd413       O420   2.457       .  S
Cd413       O419   2.449       .  S
Cd413       O418   2.456       .  S
Cd413       O414   2.453       .  S
Cd413       O417   2.438       .  S
Cd413       O415   2.460       .  S
C416        O420   1.267       .  A
C416        C658   1.469       .  S
O421        C424   1.267       .  A
O421       Cd426   2.490       .  S
C422        O431   1.263   1_565  A
C422        O427   1.265       .  A
C422        C437   1.465       .  S
O423        C429   1.265   1_545  A
O423       Cd426   2.434       .  S
C424        O432   1.262       .  A
C424        C513   1.461       .  S
C425        O430   1.265       .  A
C425        O428   1.265       .  A
C425        C641   1.480       .  S
Cd426       O433   2.458   1_545  S
Cd426       O432   2.424       .  S
Cd426       O431   2.454       .  S
Cd426       O427   2.478   1_545  S
Cd426       O430   2.466       .  S
Cd426       O428   2.458       .  S
C429        O433   1.266       .  A
C429        C648   1.474       .  S
O434        C437   1.264       .  A
O434       Cd439   2.466   1_655  S
C435        O444   1.262       .  A
C435        O440   1.263       .  A
C435        C500   1.462       .  S
O436        C442   1.265       .  A
O436       Cd439   2.439       .  S
C437        O445   1.263   1_655  A
C438        O443   1.266       .  A
C438        O441   1.266   1_455  A
C438        C628   1.473       .  S
Cd439       O446   2.467       .  S
Cd439       O445   2.477       .  S
Cd439       O444   2.448       .  S
Cd439       O440   2.484       .  S
Cd439       O443   2.461       .  S
Cd439       O441   2.445   1_455  S
C442        O446   1.266       .  A
C442        C618   1.478       .  S
O447        C450   1.264   1_655  A
O447       Cd452   2.474   1_655  S
C448        O457   1.264       .  A
C448        C463   1.463   1_554  S
O449        C455   1.265       .  A
O449       Cd452   2.450       .  S
C450        O458   1.263       .  A
C450        C487   1.464   1_455  S
C451        O456   1.266       .  A
C451        O454   1.265       .  A
C451        C671   1.474       .  S
Cd452       O459   2.456       .  S
Cd452       O458   2.464       .  S
Cd452       O453   2.458       .  S
Cd452       O456   2.461       .  S
Cd452       O454   2.446       .  S
C455        O459   1.265       .  A
C455        C608   1.473       .  S
O460        C463   1.265       .  A
O460       Cd465   2.475       .  S
C461        O470   1.262       .  A
C461        O466   1.265   1_455  A
C461        C476   1.462   1_455  S
O462        C468   1.264       .  A
O462       Cd465   2.445       .  S
C463        O471   1.263       .  A
C464        O469   1.265       .  A
C464        O467   1.265   1_455  A
C464        C601   1.475   1_455  S
Cd465       O472   2.468       .  S
Cd465       O471   2.454       .  S
Cd465       O470   2.456       .  S
Cd465       O466   2.467   1_455  S
Cd465       O469   2.456       .  S
Cd465       O467   2.452   1_455  S
C468        O472   1.266       .  A
C468        C721   1.479       .  S
O473        C476   1.265       .  A
O473       Cd478   2.465       .  S
C474        O483   1.263       .  A
C474        O479   1.265       .  A
C474        C489   1.463       .  S
O475        C481   1.266       .  A
O475       Cd478   2.443       .  S
C476        O484   1.263       .  A
C477        O482   1.263       .  A
C477        O480   1.264       .  A
C477        C708   1.470       .  S
Cd478       O485   2.460       .  S
Cd478       O484   2.453       .  S
Cd478       O483   2.462       .  S
Cd478       O479   2.466       .  S
Cd478       O482   2.443       .  S
Cd478       O480   2.465       .  S
C481        O485   1.267       .  A
C481        C638   1.478       .  S
O486        C489   1.265       .  A
O486       Cd491   2.474       .  S
C487        O496   1.263       .  A
C487        O492   1.264       .  A
O488        C494   1.265       .  A
O488       Cd491   2.447       .  S
C489        O497   1.263       .  A
C490        O495   1.265       .  A
C490        O493   1.265       .  A
C490        C631   1.471       .  S
Cd491       O498   2.461       .  S
Cd491       O497   2.458       .  S
Cd491       O496   2.468       .  S
Cd491       O492   2.469       .  S
Cd491       O495   2.449       .  S
Cd491       O493   2.450       .  S
C494        O498   1.266       .  A
C494        C681   1.474       .  S
O499        C502   1.264   1_655  A
O499       Cd504   2.461   1_655  S
C500        O509   1.261       .  A
C500        O505   1.264       .  A
O501        C507   1.265       .  A
O501       Cd504   2.454       .  S
C502        C515   1.461   1_455  S
C503        O508   1.266       .  A
C503        O506   1.265       .  A
C503        C588   1.476       .  S
Cd504       O511   2.467       .  S
Cd504       O509   2.446       .  S
Cd504       O505   2.493       .  S
Cd504       O508   2.463       .  S
Cd504       O506   2.440       .  S
C507        O511   1.266       .  A
C507        C611   1.479       .  S
O512       Cd517   2.464   1_565  S
C513        O522   1.263       .  A
C513        O518   1.266       .  A
O514        C520   1.266       .  A
O514       Cd517   2.434       .  S
C515        O523   1.262   1_565  A
C516        O521   1.265       .  A
C516        O519   1.262       .  A
C516        C598   1.471       .  S
Cd517       O524   2.467   1_545  S
Cd517       O522   2.428       .  S
Cd517       O518   2.485       .  S
Cd517       O521   2.485       .  S
Cd517       O519   2.437       .  S
C520        O524   1.266   1_545  A
C520        C581   1.475       .  S
O525        C528   1.264       .  A
O525       Cd530   2.474   1_565  S
C526        O535   1.264       .  A
C526        C541   1.461       .  S
O527        C533   1.265       .  A
O527       Cd530   2.434       .  S
C528        O536   1.262   1_565  A
C528        C565   1.463       .  S
C529        O534   1.266       .  A
C529        O532   1.265       .  A
C529        C731   1.474       .  S
Cd530       O537   2.463   1_545  S
Cd530       O536   2.460       .  S
Cd530       O531   2.454       .  S
Cd530       O534   2.449       .  S
Cd530       O532   2.438       .  S
C533        O537   1.266   1_545  A
C533        C578   1.472       .  S
O538        C541   1.264       .  A
O538       Cd543   2.470       .  S
C539        O548   1.263   1_565  A
C539        O544   1.262       .  A
C539        C552   1.462       .  S
O540        C546   1.265       .  A
O540       Cd543   2.450       .  S
C541        O549   1.262       .  A
C542        O547   1.266       .  A
C542        O545   1.265   1_545  A
C542        C591   1.474   1_545  S
Cd543       O550   2.446       .  S
Cd543       O549   2.451       .  S
Cd543       O548   2.477       .  S
Cd543       O544   2.460   1_545  S
Cd543       O547   2.466       .  S
Cd543       O545   2.436   1_545  S
C546        O550   1.265       .  A
C546        C661   1.468       .  S
O551        C554   1.265       .  A
O551       Cd556   2.473       .  S
C552        O561   1.264       .  A
C552        O557   1.265       .  A
O553        C559   1.265       .  A
O553       Cd556   2.435       .  S
C554        O562   1.262       .  A
C554        C567   1.463       .  S
C555        O560   1.264       .  A
C555        O558   1.265       .  A
C555        C621   1.469       .  S
Cd556       O563   2.474       .  S
Cd556       O562   2.462       .  S
Cd556       O561   2.449       .  S
Cd556       O557   2.472       .  S
Cd556       O560   2.445       .  S
Cd556       O558   2.455       .  S
C559        O563   1.267       .  A
C559        C691   1.475       .  S
O564        C567   1.265       .  A
O564       Cd569   2.473       .  S
C565        O574   1.263       .  A
C565        O570   1.266       .  A
O566        C572   1.265       .  A
O566       Cd569   2.427       .  S
C567        O575   1.262       .  A
C568        O573   1.263       .  A
C568        O571   1.264       .  A
C568        C651   1.476       .  S
Cd569       O576   2.467       .  S
Cd569       O575   2.457       .  S
Cd569       O574   2.459       .  S
Cd569       O570   2.468       .  S
Cd569       O573   2.450       .  S
Cd569       O571   2.452       .  S
C572        O576   1.267       .  A
C572        C701   1.474       .  S
C577        C578   1.409       .  A
C577        C582   1.404       .  A
C578        C579   1.410   1_545  A
C579        C580   1.408       .  A
C579       Br586   1.933       .  S
C580        C581   1.413   1_565  A
C580       Br585   1.933       .  S
C581        C582   1.409       .  A
C587        C588   1.412       .  A
C587        C592   1.405       .  A
C587       Br594   1.933       .  S
C588        C589   1.412       .  A
C589        C590   1.408   1_565  A
C589       Br596   1.933   1_565  S
C590        C591   1.410   1_545  A
C590       Br595   1.931       .  S
C591        C592   1.410       .  A
C592       Br593   1.935       .  S
C597        C598   1.409       .  A
C597        C602   1.405       .  A
C597       Br604   1.934       .  S
C598        C599   1.408       .  A
C599        C600   1.408   1_655  A
C600        C601   1.412   1_455  A
C600       Br605   1.931   1_556  S
C601        C602   1.412       .  A
C602       Br603   1.935       .  S
C607        C608   1.410       .  A
C607        C612   1.407       .  A
C607       Br614   1.933   1_455  S
C608        C609   1.408       .  A
C609        C610   1.407       .  A
C609       Br616   1.932       .  S
C610        C611   1.413       .  A
C610       Br615   1.931       .  S
C611        C612   1.413       .  A
C612       Br613   1.933   1_455  S
C617        C618   1.415       .  A
C617        C622   1.407       .  A
C617       Br624   1.932       .  S
C618        C619   1.412       .  A
C619        C620   1.405       .  A
C619       Br626   1.932       .  S
C620        C621   1.407       .  A
C620       Br625   1.931       .  S
C621        C622   1.408       .  A
C622       Br623   1.934       .  S
C627        C628   1.412       .  A
C627        C632   1.406       .  A
C627       Br634   1.932       .  S
C628        C629   1.410   1_455  A
C629        C630   1.406       .  A
C629       Br636   1.930       .  S
C630        C631   1.408       .  A
C630       Br635   1.931       .  S
C631        C632   1.409   1_655  A
C632       Br633   1.933       .  S
C637        C638   1.412       .  A
C637        C642   1.408       .  A
C637       Br644   1.932   1_655  S
C638        C639   1.411       .  A
C639        C640   1.407       .  A
C639       Br646   1.935       .  S
C640        C641   1.413       .  A
C640       Br645   1.933       .  S
C641        C642   1.411       .  A
C642       Br643   1.931   1_655  S
C647        C648   1.412       .  A
C647        C652   1.406       .  A
C647       Br654   1.934       .  S
C648        C649   1.410       .  A
C649        C650   1.406       .  A
C649       Br656   1.933   1_565  S
C650        C651   1.412       .  A
C650       Br655   1.933       .  S
C651        C652   1.413       .  A
C652       Br653   1.934       .  S
C657        C658   1.410       .  A
C657        C662   1.405       .  A
C657       Br664   1.932       .  S
C658        C659   1.411       .  A
C659        C660   1.405       .  A
C659       Br666   1.933       .  S
C660        C661   1.409       .  A
C660       Br665   1.931       .  S
C661        C662   1.409       .  A
C662       Br663   1.933       .  S
C667        C668   1.408       .  A
C667        C672   1.404       .  A
C667       Br674   1.934       .  S
C668        C669   1.406       .  A
C669        C670   1.407       .  A
C669       Br676   1.929       .  S
C670        C671   1.412       .  A
C670       Br675   1.929       .  S
C671        C672   1.413       .  A
C672       Br673   1.934       .  S
C677        C678   1.413       .  A
C677        C682   1.407       .  A
C677       Br684   1.934       .  S
C678        C679   1.411       .  A
C679        C680   1.406       .  A
C679       Br686   1.933       .  S
C680        C681   1.410       .  A
C680       Br685   1.931       .  S
C681        C682   1.410       .  A
C682       Br683   1.932       .  S
C687        C688   1.413       .  A
C687        C692   1.404       .  A
C687       Br694   1.936       .  S
C688        C689   1.412       .  A
C689        C690   1.409       .  A
C689       Br696   1.932       .  S
C690        C691   1.411       .  A
C690       Br695   1.930       .  S
C691        C692   1.410       .  A
C692       Br693   1.935       .  S
C697        C698   1.413       .  A
C697        C702   1.408       .  A
C697       Br704   1.931       .  S
C698        C699   1.412       .  A
C699        C700   1.405       .  A
C699       Br706   1.934       .  S
C700        C701   1.410       .  A
C700       Br705   1.933       .  S
C701        C702   1.410       .  A
C702       Br703   1.932       .  S
C707        C708   1.409       .  A
C707        C712   1.405       .  A
C707       Br714   1.935       .  S
C708        C709   1.408       .  A
C709        C710   1.407       .  A
C709       Br716   1.931       .  S
C710        C711   1.413       .  A
C710       Br715   1.932       .  S
C711        C712   1.414       .  A
C712       Br713   1.933       .  S
C717        C718   1.409       .  A
C717        C722   1.406       .  A
C717       Br724   1.934       .  S
C718        C719   1.407       .  A
C719        C720   1.408       .  A
C719       Br726   1.930       .  S
C720        C721   1.414       .  A
C720       Br725   1.931       .  S
C721        C722   1.414       .  A
C722       Br723   1.935       .  S
C727        C728   1.411       .  A
C727        C732   1.406       .  A
C727       Br734   1.932       .  S
C728        C729   1.410       .  A
C729        C730   1.406       .  A
C729       Br736   1.932       .  S
C730        C731   1.411       .  A
C730       Br735   1.933       .  S
C731        C732   1.411       .  A
C732       Br733   1.934       .  S
