geometry optimzed in LAMMPS
_audit_creation_date              2020-11-30 
_audit_creation_method            'lammps2cif' 
_symmetry_space_group_name_H-M    'P1' 
_symmetry_Int_Tables_number       1 
_symmetry_cell_setting            triclinic 
loop_ 
_symmetry_equiv_pos_as_xyz 
  x,y,z 
_cell_length_a                    53.49912124 
_cell_length_b                    53.54418846700834 
_cell_length_c                    53.46525010083983 
_cell_angle_alpha                 90.11587579906553 
_cell_angle_beta                  89.81429625786119 
_cell_angle_gamma                 89.96672995502554 
loop_ 
_atom_site_label 
_atom_site_type_symbol 
_atom_site_fract_x 
_atom_site_fract_y 
_atom_site_fract_z 
_atom_site_charge 
N1          N  0.54064840  0.08835267  0.50198849    -0.36900
N2          N  0.50256811  0.08579792  0.54089214    -0.57500
N3          N  0.46340563  0.08379587  0.50334746    -0.36900
N4          N  0.50126777  0.08479550  0.46448980    -0.57500
C5          C  0.55498079  0.08294009  0.52209263     0.26700
C6          C  0.55426273  0.08269574  0.48135507     0.26700
C7          C  0.45021007  0.07752413  0.52401860     0.26700
C8          C  0.44953317  0.07713223  0.48329166     0.26700
C9          C  0.52288015  0.08906646  0.55546542     0.35300
C10         C  0.48248288  0.08711122  0.55621037     0.35300
C11         C  0.52107944  0.08836615  0.44923049     0.35300
C12         C  0.48074789  0.08620389  0.44991629     0.35300
C13         C  0.57827278  0.07470365  0.51409666    -0.22200
C14         C  0.57781457  0.07454037  0.48841721    -0.22200
C15         C  0.42745024  0.06729412  0.51699752    -0.22200
C16         C  0.42703566  0.06703626  0.49130638    -0.22200
C17         C  0.51565452  0.09270232  0.58013180    -0.23300
C18         C  0.49004103  0.09151846  0.58059426    -0.23300
C19         C  0.51312086  0.09220692  0.42488781    -0.23300
C20         C  0.48753150  0.09088022  0.42533174    -0.23300
C21         C  0.54775292  0.08520993  0.54748754    -0.18600
C22         C  0.54619017  0.08485744  0.45628214    -0.18600
C23         C  0.45627617  0.08053094  0.45793978    -0.18600
C24         C  0.45777245  0.08136539  0.54906758    -0.18600
H25         H  0.59393783  0.06909549  0.52555318     0.14300
H26         H  0.59303915  0.06876147  0.47634032     0.14300
H27         H  0.41265637  0.06061874  0.52911096     0.14300
H28         H  0.41188836  0.06012512  0.47984660     0.14300
H29         H  0.52763078  0.09500717  0.59624950     0.12600
H30         H  0.47838210  0.09274167  0.59713561     0.12600
H31         H  0.52460059  0.09483379  0.40839482     0.12600
H32         H  0.47536555  0.09232167  0.40926184     0.12600
H33         H  0.52325537  0.09698373  0.50227592     0.25800
H34         H  0.47982676  0.09411576  0.50297145     0.25800
N35         N  0.11538171  0.47462851  0.53947123    -0.36900
N36         N  0.11656465  0.43571821  0.50191768    -0.57500
N37         N  0.11671752  0.47234469  0.46199269    -0.36900
N38         N  0.11462164  0.51127714  0.49959948    -0.57500
C39         C  0.10825363  0.45462147  0.55313937     0.26700
C40         C  0.10750817  0.49518751  0.55191287     0.26700
C41         C  0.11051636  0.45145301  0.44919949     0.26700
C42         C  0.10950759  0.49205778  0.44796590     0.26700
C43         C  0.11958346  0.42163120  0.52258649     0.35300
C44         C  0.12026074  0.42037923  0.48220437     0.35300
C45         C  0.11740285  0.52666354  0.51940036     0.35300
C46         C  0.11779621  0.52548487  0.47902653     0.35300
C47         C  0.09619190  0.46256200  0.57473599    -0.22200
C48         C  0.09573043  0.48819172  0.57397039    -0.22200
C49         C  0.09991915  0.45796767  0.42647477    -0.22200
C50         C  0.09931274  0.48362110  0.42568528    -0.22200
C51         C  0.12576751  0.39734791  0.51601306    -0.23300
C52         C  0.12616383  0.39654388  0.49035799    -0.23300
C53         C  0.12290686  0.55065696  0.51140443    -0.23300
C54         C  0.12299649  0.54993818  0.48574888    -0.23300
C55         C  0.11279433  0.42940983  0.54685005    -0.18600
C56         C  0.11121120  0.52010954  0.54416098    -0.18600
C57         C  0.11231760  0.51744810  0.45457741    -0.18600
C58         C  0.11455794  0.42667925  0.45730379    -0.18600
H59         H  0.08839537  0.45109105  0.58946575     0.14300
H60         H  0.08742351  0.50026807  0.58797049     0.14300
H61         H  0.09314084  0.44554392  0.41201685     0.14300
H62         H  0.09198657  0.49477171  0.41051639     0.14300
H63         H  0.12847253  0.38161417  0.52839776     0.12600
H64         H  0.12927073  0.38006866  0.47899814     0.12600
H65         H  0.12532631  0.56717803  0.52283996     0.12600
H66         H  0.12555219  0.56577290  0.47345104     0.12600
H67         H  0.12679473  0.47436850  0.52367299     0.25800
H68         H  0.12704094  0.47310754  0.47842701     0.25800
N69         N  0.50016035  0.86868127  0.53735776    -0.36900
N70         N  0.53831920  0.86620593  0.49844751    -0.57500
N71         N  0.49853941  0.86538620  0.46143053    -0.36900
N72         N  0.46041372  0.86457059  0.50037331    -0.57500
C73         C  0.52086836  0.86498928  0.55125386     0.26700
C74         C  0.48017778  0.86466834  0.55231082     0.26700
C75         C  0.51865835  0.86213159  0.44650274     0.26700
C76         C  0.47799787  0.86093447  0.44755425     0.26700
C77         C  0.55295464  0.87199181  0.51819669     0.35300
C78         C  0.55192528  0.87129665  0.47772941     0.35300
C79         C  0.44656517  0.87044315  0.52074766     0.35300
C80         C  0.44569102  0.86878932  0.48030520     0.35300
C81         C  0.51395934  0.85841135  0.57538963    -0.22200
C82         C  0.48826057  0.85825280  0.57606625    -0.22200
C83         C  0.51085662  0.85510613  0.42279598    -0.22200
C84         C  0.48514426  0.85438671  0.42345065    -0.22200
C85         C  0.57619133  0.88004189  0.51000883    -0.23300
C86         C  0.57553907  0.87961801  0.48437512    -0.23300
C87         C  0.42274645  0.87769150  0.51360498    -0.23300
C88         C  0.42216637  0.87654188  0.48799343    -0.23300
C89         C  0.54568355  0.86996161  0.54353890    -0.18600
C90         C  0.45494792  0.86886220  0.54575331    -0.18600
C91         C  0.45315727  0.86589794  0.45508893    -0.18600
C92         C  0.54350633  0.86830036  0.45285667    -0.18600
H93         H  0.52618745  0.85476798  0.59106313     0.14300
H94         H  0.47681092  0.85439144  0.59233816     0.14300
H95         H  0.52245585  0.85183870  0.40648082     0.14300
H96         H  0.47304814  0.85045893  0.40773082     0.14300
H97         H  0.59185972  0.88600663  0.52128471     0.12600
H98         H  0.59065056  0.88512126  0.47206441     0.12600
H99         H  0.40743775  0.88350231  0.52554810     0.12600
H100        H  0.40634236  0.88126502  0.47635912     0.12600
H101        H  0.49965339  0.87714149  0.51968688     0.25800
H102        H  0.49868884  0.87424686  0.47894377     0.25800
N103        N  0.88569205  0.47724636  0.46010921    -0.36900
N104        N  0.88503037  0.51447778  0.49916728    -0.57500
N105        N  0.88615551  0.47599776  0.53739804    -0.36900
N106        N  0.88779504  0.43863718  0.49837333    -0.57500
C107        C  0.89145642  0.49801841  0.44691950     0.26700
C108        C  0.89355989  0.45746306  0.44643759     0.26700
C109        C  0.89293469  0.49626875  0.55086585     0.26700
C110        C  0.89305846  0.45569080  0.55066255     0.26700
C111        C  0.88095014  0.52947350  0.47935024     0.35300
C112        C  0.88204966  0.52881697  0.51970313     0.35300
C113        C  0.88608382  0.42403172  0.47785405     0.35300
C114        C  0.88521653  0.42336805  0.51828740     0.35300
C115        C  0.90247827  0.49130784  0.42436975    -0.22200
C116        C  0.90380002  0.46571873  0.42406309    -0.22200
C117        C  0.90375170  0.48876101  0.57316759    -0.22200
C118        C  0.90371358  0.46312358  0.57309939    -0.22200
C119        C  0.87480435  0.55334655  0.48730768    -0.23300
C120        C  0.87555845  0.55294496  0.51296301    -0.23300
C121        C  0.88213979  0.39939264  0.48472896    -0.23300
C122        C  0.88156045  0.39897546  0.51040129    -0.23300
C123        C  0.88685302  0.52288625  0.45453570    -0.18600
C124        C  0.89134873  0.43210759  0.45330976    -0.18600
C125        C  0.88969529  0.43062280  0.54322924    -0.18600
C126        C  0.88877275  0.52136318  0.54399548    -0.18600
H127        H  0.90916099  0.50356063  0.40972948     0.14300
H128        H  0.91166785  0.45449648  0.40912727     0.14300
H129        H  0.91092947  0.50051772  0.58798406     0.14300
H130        H  0.91097032  0.45133135  0.58780900     0.14300
H131        H  0.87149611  0.56961710  0.47580056     0.12600
H132        H  0.87279606  0.56883306  0.52521719     0.12600
H133        H  0.88080480  0.38328974  0.47253449     0.12600
H134        H  0.87976065  0.38248445  0.52194361     0.12600
H135        H  0.87522932  0.47650341  0.47651892     0.25800
H136        H  0.87549381  0.47598759  0.52116745     0.25800
N137        N  0.54215219  0.48327576  0.11436981    -0.36900
N138        N  0.50224863  0.52007960  0.11500459    -0.57500
N139        N  0.46692143  0.47892415  0.11431177    -0.36900
N140        N  0.50667426  0.44216045  0.11631469    -0.57500
C141        C  0.55545238  0.50441191  0.11785317     0.26700
C142        C  0.55776781  0.46385054  0.11816810     0.26700
C143        C  0.45145755  0.49846727  0.11825879     0.26700
C144        C  0.45374000  0.45793336  0.11893988     0.26700
C145        C  0.52164620  0.53513850  0.10921217     0.35300
C146        C  0.48129769  0.53272930  0.10889403     0.35300
C147        C  0.52763392  0.42929598  0.11055957     0.35300
C148        C  0.48731514  0.42699593  0.11070281     0.35300
C149        C  0.57981132  0.49835004  0.12428696    -0.22200
C150        C  0.58128001  0.47270199  0.12444977    -0.22200
C151        C  0.42820297  0.48981808  0.12583490    -0.22200
C152        C  0.42965600  0.46416678  0.12626415    -0.22200
C153        C  0.51295459  0.55778833  0.10017896    -0.23300
C154        C  0.48732697  0.55626399  0.10001093    -0.23300
C155        C  0.52158856  0.40555959  0.10210488    -0.23300
C156        C  0.49598688  0.40410593  0.10219347    -0.23300
C157        C  0.54708173  0.52876475  0.11218311    -0.18600
C158        C  0.55217231  0.43862978  0.11298094    -0.18600
C159        C  0.46190926  0.43350416  0.11339712    -0.18600
C160        C  0.45680146  0.52343231  0.11180018    -0.18600
H161        H  0.59516827  0.51109517  0.12753393     0.14300
H162        H  0.59797367  0.46180888  0.12786182     0.14300
H163        H  0.41163705  0.50080252  0.12968484     0.14300
H164        H  0.41446639  0.45150357  0.13051340     0.14300
H165        H  0.52392557  0.57365309  0.09412087     0.12600
H166        H  0.47461313  0.57072181  0.09387394     0.12600
H167        H  0.53427341  0.39094106  0.09615287     0.12600
H168        H  0.48502783  0.38814997  0.09636360     0.12600
H169        H  0.52473995  0.48217428  0.10585650     0.25800
H170        H  0.48390352  0.47970644  0.10479720     0.25800
N171        N  0.49514635  0.51637370  0.88344334    -0.36900
N172        N  0.53554756  0.47981602  0.88303795    -0.57500
N173        N  0.49782269  0.44096539  0.88451216    -0.36900
N174        N  0.45743647  0.47752099  0.88186058    -0.57500
C175        C  0.51505876  0.53137271  0.87964184     0.26700
C176        C  0.47442052  0.53017225  0.87935809     0.26700
C177        C  0.51867541  0.42701392  0.88149923     0.26700
C178        C  0.47801487  0.42586979  0.88049121     0.26700
C179        C  0.54882885  0.50058649  0.88837588     0.35300
C180        C  0.55029537  0.46023106  0.88899819     0.35300
C181        C  0.44265728  0.49727276  0.88733209     0.35300
C182        C  0.44403055  0.45693263  0.88757570     0.35300
C183        C  0.50692519  0.55495300  0.87268345    -0.22200
C184        C  0.48121208  0.55419765  0.87253272    -0.22200
C185        C  0.51206139  0.40275618  0.87527779    -0.22200
C186        C  0.48636116  0.40203481  0.87463690    -0.22200
C187        C  0.57243351  0.49418369  0.89686701    -0.23300
C188        C  0.57335983  0.46857992  0.89727249    -0.23300
C189        C  0.41949781  0.48919116  0.89572954    -0.23300
C190        C  0.42035899  0.46359992  0.89585406    -0.23300
C191        C  0.54000667  0.52528042  0.88558400    -0.18600
C192        C  0.44977599  0.52252316  0.88484703    -0.18600
C193        C  0.45283666  0.43216414  0.88545468    -0.18600
C194        C  0.54324627  0.43489943  0.88700757    -0.18600
H195        H  0.51832715  0.57125576  0.86907553     0.14300
H196        H  0.46889572  0.56978575  0.86878852     0.14300
H197        H  0.52445683  0.38702801  0.87234337     0.14300
H198        H  0.47507228  0.38561412  0.87122738     0.14300
H199        H  0.58732010  0.50664240  0.90250301     0.12600
H200        H  0.58908506  0.45741626  0.90331646     0.12600
H201        H  0.40375043  0.50052088  0.90154603     0.12600
H202        H  0.40540929  0.45133507  0.90178937     0.12600
H203        H  0.49560203  0.49922795  0.89244781     0.25800
H204        H  0.49705678  0.45846414  0.89285382     0.25800
N205        N  0.99457822  0.59957623  0.04087552    -0.36900
N206        N  0.93759112  0.60183770  0.00084274    -0.57500
N207        N  0.99637785  0.60159834  0.96313758    -0.36900
N208        N  0.03300367  0.59341305  0.00265508    -0.57500
C209        C  0.97306675  0.59634956  0.05380447     0.26700
C210        C  0.01340366  0.59068056  0.05502419     0.26700
C211        C  0.97544144  0.59880122  0.94926443     0.26700
C212        C  0.01582413  0.59295249  0.94948696     0.26700
C213        C  0.94595725  0.61378434  0.02143475     0.35300
C214        C  0.94664520  0.61484985  0.98120539     0.35300
C215        C  0.04753397  0.59422419  0.02327556     0.35300
C216        C  0.04846801  0.59516063  0.98269952     0.35300
C217        C  0.97827388  0.58566130  0.07679695    -0.22200
C218        C  0.00381150  0.58224666  0.07765215    -0.22200
C219        C  0.98164318  0.58856233  0.92625689    -0.22200
C220        C  0.00722808  0.58516936  0.92625847    -0.22200
C221        C  0.95878380  0.63525624  0.01494991    -0.23300
C222        C  0.95919939  0.63594847  0.98932336    -0.23300
C223        C  0.07241476  0.59667751  0.01638720    -0.23300
C224        C  0.07300882  0.59723196  0.99068168    -0.23300
C225        C  0.94896626  0.60131880  0.04419395    -0.18600
C226        C  0.03893187  0.59009854  0.04800612    -0.18600
C227        C  0.04103309  0.59197693  0.95750582    -0.18600
C228        C  0.95089391  0.60349614  0.95799176    -0.18600
H229        H  0.96509724  0.58063312  0.09133252     0.14300
H230        H  0.01405184  0.57398408  0.09297804     0.14300
H231        H  0.96904667  0.58373441  0.91120725     0.14300
H232        H  0.01814888  0.57726084  0.91111722     0.14300
H233        H  0.96921270  0.64736176  0.02735168     0.12600
H234        H  0.97007799  0.64867347  0.97795718     0.12600
H235        H  0.08849878  0.59735615  0.02859977     0.12600
H236        H  0.08964048  0.59838810  0.97916044     0.12600
H237        H  0.99621283  0.60740622  0.02325437     0.25800
H238        H  0.99728304  0.60896569  0.98103932     0.25800
N239        N  0.61352434  0.97585188  0.03490894    -0.36900
N240        N  0.61276753  0.93481139  0.99960927    -0.57500
N241        N  0.60996675  0.97185783  0.95966445    -0.36900
N242        N  0.61371953  0.01277672  0.99507529    -0.57500
C243        C  0.61760072  0.95631311  0.05028271     0.26700
C244        C  0.61897057  0.99681611  0.04784752     0.26700
C245        C  0.61340470  0.95071375  0.94628850     0.26700
C246        C  0.61327339  0.99130500  0.94392103     0.26700
C247        C  0.60749451  0.92201001  0.02073132     0.35300
C248        C  0.60645874  0.91974772  0.98036214     0.35300
C249        C  0.60910866  0.02785972  0.01484069     0.35300
C250        C  0.60684740  0.02568532  0.97453310     0.35300
C251        C  0.62608099  0.96489713  0.07321545    -0.22200
C252        C  0.62702520  0.99051443  0.07165241    -0.22200
C253        C  0.61912501  0.95680275  0.92170794    -0.22200
C254        C  0.61909463  0.98244924  0.92023601    -0.22200
C255        C  0.59860465  0.89840835  0.01488930    -0.23300
C256        C  0.59806342  0.89692712  0.98925577    -0.23300
C257        C  0.59988012  0.05065563  0.00679326    -0.23300
C258        C  0.59846478  0.04928416  0.98122290    -0.23300
C259        C  0.61080557  0.93137182  0.04519128    -0.18600
C260        C  0.61323191  0.02132830  0.04004794    -0.18600
C261        C  0.60845335  0.01659246  0.94977536    -0.18600
C262        C  0.60822822  0.92630530  0.95485743    -0.18600
H263        H  0.63024408  0.95387873  0.08964033     0.14300
H264        H  0.63193207  0.00314325  0.08668992     0.14300
H265        H  0.62214797  0.94409357  0.90622387     0.14300
H266        H  0.62214322  0.99332843  0.90345912     0.14300
H267        H  0.59286972  0.88387600  0.02771930     0.12600
H268        H  0.59179321  0.88103735  0.97842320     0.12600
H269        H  0.59437839  0.06650030  0.01814147     0.12600
H270        H  0.59166719  0.06386846  0.96901644     0.12600
H271        H  0.60345662  0.97515026  0.01828524     0.25800
H272        H  0.60190726  0.97286186  0.97738817     0.25800
N273        N  0.00607650  0.35720947  0.04000839    -0.36900
N274        N  0.04191361  0.35503718  0.99882242    -0.57500
N275        N  0.00168266  0.35509799  0.96247110    -0.36900
N276        N  0.96590929  0.35867745  0.00374611    -0.57500
C277        C  0.02745959  0.36285040  0.05218071     0.26700
C278        C  0.98692750  0.36461704  0.05489219     0.26700
C279        C  0.02136947  0.36034434  0.94739890     0.26700
C280        C  0.98079547  0.36169106  0.94991465     0.26700
C281        C  0.05800384  0.35320846  0.01810441     0.35300
C282        C  0.05566573  0.35237923  0.97778590     0.35300
C283        C  0.95202236  0.35807562  0.02489179     0.35300
C284        C  0.94971208  0.35684714  0.98451143     0.35300
C285        C  0.02178000  0.37298672  0.07543905    -0.22200
C286        C  0.99623467  0.37407274  0.07714695    -0.22200
C287        C  0.01280336  0.36924942  0.92463848    -0.22200
C288        C  0.98723042  0.37006197  0.92620622    -0.22200
C289        C  0.08200854  0.34876915  0.00933184    -0.23300
C290        C  0.08053316  0.34828926  0.98373776    -0.23300
C291        C  0.92692476  0.35556756  0.01906800    -0.23300
C292        C  0.92546124  0.35477265  0.99347859    -0.23300
C293        C  0.05204083  0.35919543  0.04307906    -0.18600
C294        C  0.96123627  0.36314330  0.04907406    -0.18600
C295        C  0.95603047  0.36060695  0.95915134    -0.18600
C296        C  0.04691155  0.35769114  0.95355679    -0.18600
H297        H  0.03468287  0.37929972  0.08966021     0.14300
H298        H  0.98574270  0.38135455  0.09289530     0.14300
H299        H  0.02382951  0.37495515  0.90863283     0.14300
H300        H  0.97483508  0.37656901  0.91164369     0.14300
H301        H  0.09898016  0.34728596  0.02019830     0.12600
H302        H  0.09614703  0.34638082  0.97094626     0.12600
H303        H  0.91122352  0.35534748  0.03188432     0.12600
H304        H  0.90840604  0.35386700  0.98267980     0.12600
H305        H  0.00465537  0.34737835  0.02331451     0.25800
H306        H  0.00232111  0.34625619  0.97972254     0.25800
N307        N  0.37918852  0.01726040  0.00185180    -0.36900
N308        N  0.38322994  0.97948966  0.96302787    -0.57500
N309        N  0.38306949  0.93966608  0.00020601    -0.36900
N310        N  0.38026134  0.97731041  0.03879464    -0.57500
C311        C  0.38579036  0.03157150  0.98208614     0.26700
C312        C  0.38521459  0.03019560  0.02273845     0.26700
C313        C  0.39097503  0.92707696  0.97970025     0.26700
C314        C  0.38983948  0.92607969  0.02044178     0.26700
C315        C  0.38017502  0.99989235  0.94850297     0.35300
C316        C  0.38207555  0.95952437  0.94758183     0.35300
C317        C  0.37618438  0.99705166  0.05395639     0.35300
C318        C  0.37774809  0.95676540  0.05314342     0.35300
C319        C  0.39511099  0.05423997  0.99050627    -0.22200
C320        C  0.39479340  0.05335180  0.01616291    -0.22200
C321        C  0.40225385  0.90491221  0.98693647    -0.22200
C322        C  0.40161292  0.90432445  0.01264724    -0.22200
C323        C  0.37681735  0.99285888  0.92378630    -0.23300
C324        C  0.37797915  0.96726946  0.92320332    -0.23300
C325        C  0.37046823  0.98903969  0.07792946    -0.23300
C326        C  0.37129135  0.96344799  0.07737825    -0.23300
C327        C  0.38386097  0.02470880  0.95664213    -0.18600
C328        C  0.38219443  0.02179792  0.04760148    -0.18600
C329        C  0.38543833  0.93268594  0.04572930    -0.18600
C330        C  0.38783629  0.93477024  0.95460300    -0.18600
H331        H  0.40192884  0.06966364  0.97935285     0.14300
H332        H  0.40114592  0.06803452  0.02854615     0.14300
H333        H  0.41036369  0.89073189  0.97494647     0.14300
H334        H  0.40915567  0.88961709  0.02425342     0.14300
H335        H  0.37472698  0.00495937  0.90773222     0.12600
H336        H  0.37691853  0.95573552  0.90659113     0.12600
H337        H  0.36732056  0.00047241  0.09435884     0.12600
H338        H  0.36890312  0.95122176  0.09330501     0.12600
H339        H  0.36974173  0.00030974  0.00112335     0.25800
H340        H  0.37192371  0.95558140  0.00022380     0.25800
N341        N  0.99767422  0.01428844  0.60668953    -0.36900
N342        N  0.03726785  0.97759953  0.60979360    -0.57500
N343        N  0.00087192  0.93754041  0.61279426    -0.36900
N344        N  0.96117366  0.97450427  0.60812114    -0.57500
C345        C  0.01745503  0.02812069  0.59918449     0.26700
C346        C  0.97683295  0.02657260  0.59950425     0.26700
C347        C  0.02190223  0.92446610  0.60755801     0.26700
C348        C  0.98129872  0.92282473  0.60656781     0.26700
C349        C  0.05126211  0.99853253  0.61078746     0.35300
C350        C  0.05295776  0.95836529  0.61411508     0.35300
C351        C  0.94556338  0.99419424  0.61054589     0.35300
C352        C  0.94729819  0.95391956  0.61248238     0.35300
C353        C  0.00910218  0.04957750  0.58737111    -0.22200
C354        C  0.98343600  0.04856505  0.58750073    -0.22200
C355        C  0.01559600  0.90095519  0.59865472    -0.22200
C356        C  0.98998078  0.89992901  0.59800451    -0.22200
C357        C  0.07590827  0.99261660  0.61610570    -0.23300
C358        C  0.07698275  0.96711625  0.61820282    -0.23300
C359        C  0.92173043  0.98608159  0.61673890    -0.23300
C360        C  0.92279631  0.96049506  0.61775401    -0.23300
C361        C  0.04280703  0.02238526  0.60362132    -0.18600
C362        C  0.95202646  0.01904936  0.60464812    -0.18600
C363        C  0.95578067  0.92928812  0.60876852    -0.18600
C364        C  0.04667739  0.93305109  0.61062931    -0.18600
H365        H  0.02031973  0.06446073  0.57952231     0.14300
H366        H  0.97104741  0.06249683  0.57971324     0.14300
H367        H  0.02813298  0.88614235  0.59287610     0.14300
H368        H  0.97902626  0.88417142  0.59165089     0.14300
H369        H  0.09165643  0.00524662  0.61725717     0.12600
H370        H  0.09371423  0.95617708  0.62126258     0.12600
H371        H  0.90513610  0.99734015  0.61946644     0.12600
H372        H  0.90722896  0.94809764  0.62136798     0.12600
H373        H  0.99826278  0.99880085  0.61837559     0.25800
H374        H  0.99989907  0.95475099  0.62179092     0.25800
N375        N  0.04120546  0.98171379  0.38527889    -0.36900
N376        N  0.00435452  0.94231757  0.38625860    -0.57500
N377        N  0.96380505  0.97860823  0.38539725    -0.36900
N378        N  0.00068868  0.01791889  0.38496321    -0.57500
C379        C  0.05540897  0.96222411  0.39279336     0.26700
C380        C  0.05342634  0.00278773  0.39191382     0.26700
C381        C  0.95155777  0.95783216  0.39285714     0.26700
C382        C  0.94966028  0.99841065  0.39239361     0.26700
C383        C  0.02519981  0.92826274  0.38383710     0.35300
C384        C  0.98479678  0.92662868  0.38366919     0.35300
C385        C  0.02021889  0.03342984  0.38142223     0.35300
C386        C  0.97989031  0.03181870  0.38184719     0.35300
C387        C  0.07716657  0.97100904  0.40374851    -0.22200
C388        C  0.07589561  0.99663181  0.40323653    -0.22200
C389        C  0.92911581  0.96447002  0.40413167    -0.22200
C390        C  0.92794278  0.99010083  0.40387900    -0.22200
C391        C  0.01888672  0.90358447  0.37927333    -0.23300
C392        C  0.99323905  0.90255094  0.37912396    -0.23300
C393        C  0.01182308  0.05718213  0.37546593    -0.23300
C394        C  0.98619984  0.05616663  0.37578785    -0.23300
C395        C  0.04945269  0.93672569  0.38963179    -0.18600
C396        C  0.04508454  0.02742591  0.38754707    -0.18600
C397        C  0.95568847  0.02376314  0.38837202    -0.18600
C398        C  0.95981985  0.93301651  0.38929180    -0.18600
H399        H  0.09230050  0.96011263  0.41152802     0.14300
H400        H  0.08986246  0.00927276  0.41056877     0.14300
H401        H  0.91510923  0.95214236  0.41194685     0.14300
H402        H  0.91288953  0.00132198  0.41149033     0.14300
H403        H  0.03142983  0.88781259  0.37743897     0.12600
H404        H  0.98208361  0.88580801  0.37714736     0.12600
H405        H  0.02298552  0.07377969  0.37252442     0.12600
H406        H  0.97365855  0.07180034  0.37311907     0.12600
H407        H  0.02513128  0.98074381  0.37442059     0.25800
H408        H  0.97987558  0.97910922  0.37439595     0.25800
C409        C  0.65156197  0.87949092  0.64818912     0.79900
N410        N  0.65310285  0.90362025  0.65632100    -0.78400
C411        C  0.63765883  0.92131681  0.64662212     0.82400
N412        N  0.62137457  0.91486184  0.62831860    -0.78300
C413        C  0.61999259  0.89106019  0.61966581     0.82500
N414        N  0.63518030  0.87353954  0.62975934    -0.80100
C415        C  0.65098890  0.06979111  0.65245832     0.79900
N416        N  0.65363472  0.04547511  0.65970788    -0.78400
C417        C  0.63942804  0.02742642  0.64873961     0.82400
N418        N  0.62270965  0.03387621  0.63087835    -0.78300
C419        C  0.62020308  0.05782686  0.62318813     0.82500
N420        N  0.63457827  0.07564452  0.63402014    -0.80100
C421        C  0.90582070  0.62073657  0.65198834     0.79900
N422        N  0.93035314  0.62691306  0.65490502    -0.78400
C423        C  0.94776050  0.61789256  0.63865618     0.82400
N424        N  0.94059274  0.60272915  0.61966407    -0.78300
C425        C  0.91633305  0.59628458  0.61669491     0.82500
N426        N  0.89908056  0.60553659  0.63282455    -0.80100
C427        C  0.09560872  0.62239767  0.65087971     0.79900
N428        N  0.10272986  0.60500505  0.63376732    -0.78400
C429        C  0.08566410  0.59408080  0.61862403     0.82400
N430        N  0.06131123  0.60065397  0.62076854    -0.78300
C431        C  0.05386807  0.61786325  0.63784210     0.82500
N432        N  0.07099643  0.62854244  0.65320077    -0.80100
C433        C  0.64181640  0.63035122  0.90446243     0.79900
N434        N  0.62388645  0.61368474  0.89797028    -0.78400
C435        C  0.60889536  0.60308413  0.91539252     0.82400
N436        N  0.61190686  0.60960801  0.93971706    -0.78300
C437        C  0.62957609  0.62648475  0.94660262     0.82500
N438        N  0.64487615  0.63654513  0.92895932    -0.80100
C439        C  0.64661980  0.63699309  0.09430666     0.79900
N440        N  0.64781461  0.64352352  0.06968871    -0.78400
C441        C  0.63392417  0.63087050  0.05258682     0.82400
N442        N  0.61904831  0.61187172  0.06017238    -0.78300
C443        C  0.61826287  0.60477591  0.08442487     0.82500
N444        N  0.63200113  0.61749892  0.10148921    -0.80100
C445        C  0.90625259  0.62101750  0.34431349     0.79900
N446        N  0.89783992  0.60568136  0.36272544    -0.78400
C447        C  0.91416740  0.59260299  0.37693614     0.82400
N448        N  0.93897940  0.59481126  0.37234654    -0.78300
C449        C  0.94771442  0.60951437  0.35366661     0.82500
N450        N  0.93130627  0.62335382  0.34004561    -0.80100
C451        C  0.09644604  0.62436045  0.35292674     0.79900
N452        N  0.10340324  0.60732211  0.37033906    -0.78400
C453        C  0.08635871  0.59185147  0.38085924     0.82400
N454        N  0.06209486  0.59369673  0.37390548    -0.78300
C455        C  0.05467438  0.61068332  0.35664187     0.82500
N456        N  0.07197603  0.62597890  0.34597660    -0.80100
C457        C  0.65349058  0.88375918  0.35391798     0.79900
N458        N  0.63371370  0.87682724  0.36825682    -0.78400
C459        C  0.62087158  0.89384950  0.38194716     0.82400
N460        N  0.62763773  0.91822866  0.38072685    -0.78300
C461        C  0.64708746  0.92561605  0.36611040     0.82500
N462        N  0.65990370  0.90833888  0.35249676    -0.80100
C463        C  0.64884184  0.07348482  0.34851626     0.79900
N464        N  0.65696765  0.04929257  0.34751268    -0.78400
C465        C  0.64613735  0.03176822  0.36248251     0.82400
N466        N  0.62776243  0.03872502  0.37855153    -0.78300
C467        C  0.61969195  0.06263741  0.37987422     0.82500
N468        N  0.63012663  0.07986770  0.36454877    -0.80100
C469        C  0.90263333  0.32886619  0.65077596     0.79900
N470        N  0.89575004  0.34458717  0.63211625    -0.78400
C471        C  0.91305448  0.35823624  0.61967918     0.82400
N472        N  0.93743582  0.35557977  0.62577636    -0.78300
C473        C  0.94468893  0.34044620  0.64466630     0.82500
N474        N  0.92722194  0.32684252  0.65719078    -0.80100
C475        C  0.09315173  0.32623092  0.65065123     0.79900
N476        N  0.10028205  0.34252352  0.63259631    -0.78400
C477        C  0.08306808  0.35585010  0.61982647     0.82400
N478        N  0.05859304  0.35339120  0.62582007    -0.78300
C479        C  0.05106966  0.33714625  0.64378859     0.82500
N480        N  0.06840545  0.32315425  0.65601202    -0.80100
C481        C  0.34582961  0.88049712  0.64594351     0.79900
N482        N  0.33891348  0.90491512  0.64797889    -0.78400
C483        C  0.35189054  0.92274073  0.63537715     0.82400
N484        N  0.37155701  0.91604035  0.62076775    -0.78300
C485        C  0.37880953  0.89185185  0.61897037     0.82500
N486        N  0.36580648  0.87410676  0.63153567    -0.80100
C487        C  0.34756836  0.07025924  0.64904622     0.79900
N488        N  0.36773375  0.07691064  0.63505339    -0.78400
C489        C  0.38000200  0.05964780  0.62103506     0.82400
N490        N  0.37227956  0.03556646  0.62175687    -0.78300
C491        C  0.35226215  0.02863218  0.63567615     0.82500
N492        N  0.33996163  0.04599785  0.64960022    -0.80100
C493        C  0.64869284  0.33219485  0.90441591     0.79900
N494        N  0.65324917  0.32803051  0.92911313    -0.78400
C495        C  0.63995289  0.34057817  0.94680031     0.82400
N496        N  0.62252780  0.35748711  0.93963340    -0.78300
C497        C  0.61773460  0.36176519  0.91516745     0.82500
N498        N  0.63087713  0.34895922  0.89759605    -0.80100
C499        C  0.65601030  0.33484678  0.09448301     0.79900
N500        N  0.64140035  0.35437648  0.10168335    -0.78400
C501        C  0.62721766  0.36673101  0.08477573     0.82400
N502        N  0.62739444  0.35905425  0.06066218    -0.78300
C503        C  0.64193789  0.33973990  0.05308768     0.82500
N504        N  0.65640862  0.32758338  0.07002103    -0.80100
C505        C  0.34467015  0.62537337  0.90609736     0.79900
N506        N  0.36262093  0.60933774  0.89792496    -0.78400
C507        C  0.37310839  0.59268746  0.91378751     0.82400
N508        N  0.36573851  0.59232578  0.93804582    -0.78300
C509        C  0.34810107  0.60842651  0.94665052     0.82500
N510        N  0.33750084  0.62500628  0.93059536    -0.80100
C511        C  0.34040527  0.61317453  0.09482953     0.79900
N512        N  0.33379341  0.61520091  0.07034223    -0.78400
C513        C  0.34460804  0.60002211  0.05298560     0.82400
N514        N  0.36279325  0.58391951  0.06010522    -0.78300
C515        C  0.37036495  0.58250755  0.08421477     0.82500
N516        N  0.35853776  0.59678282  0.10163060    -0.80100
C517        C  0.35188548  0.88172769  0.34746131     0.79900
N518        N  0.34440456  0.90609571  0.34644404    -0.78400
C519        C  0.35435417  0.92314541  0.36252333     0.82400
N520        N  0.37163677  0.91567617  0.37947021    -0.78300
C521        C  0.37927980  0.89155619  0.38057611     0.82500
N522        N  0.36942416  0.87473238  0.36439331    -0.80100
C523        C  0.35040821  0.07217714  0.35378075     0.79900
N524        N  0.36772263  0.07816377  0.37135676    -0.78400
C525        C  0.37969793  0.06009520  0.38440687     0.82400
N526        N  0.37364727  0.03588997  0.38020362    -0.78300
C527        C  0.35629227  0.02947903  0.36292137     0.82500
N528        N  0.34483908  0.04766848  0.34935096    -0.80100
C529        C  0.90837246  0.32976823  0.34674967     0.79900
N530        N  0.93271496  0.32224131  0.34574539    -0.78400
C531        C  0.95000814  0.33374877  0.36039273     0.82400
N532        N  0.94281769  0.35261328  0.37575231    -0.78300
C533        C  0.91859006  0.35983945  0.37733584     0.82500
N534        N  0.90147835  0.34829716  0.36270545    -0.80100
C535        C  0.09853068  0.32550496  0.35016854     0.79900
N536        N  0.10540175  0.34125902  0.36892386    -0.78400
C537        C  0.08812461  0.35068732  0.38504062     0.82400
N538        N  0.06383181  0.34441801  0.38194056    -0.78300
C539        C  0.05645432  0.32928322  0.36302663     0.82500
N540        N  0.07388060  0.31986256  0.34701319    -0.80100
C541        C  0.34936016  0.32621598  0.90434474     0.79900
N542        N  0.34594573  0.32310745  0.92947740    -0.78400
C543        C  0.35911082  0.33752434  0.94579702     0.82400
N544        N  0.37645001  0.35364691  0.93690046    -0.78300
C545        C  0.38058408  0.35635222  0.91208264     0.82500
N546        N  0.36668528  0.34278099  0.89585040    -0.80100
C547        C  0.36181564  0.32607585  0.09466956     0.79900
N548        N  0.37942202  0.34312107  0.10124793    -0.78400
C549        C  0.39036023  0.35789146  0.08377979     0.82400
N550        N  0.38393238  0.35487366  0.05945405    -0.78300
C551        C  0.36673042  0.33763052  0.05242205     0.82500
N552        N  0.35556986  0.32325696  0.07014035    -0.80100
C553        C  0.15295038  0.38113552  0.14782276     0.79900
N554        N  0.13674443  0.37408518  0.12977061    -0.78400
C555        C  0.12222440  0.39096398  0.11791705     0.82400
N556        N  0.12318315  0.41524706  0.12507367    -0.78300
C557        C  0.13914394  0.42275262  0.14328361     0.82500
N558        N  0.15394756  0.40562123  0.15487949    -0.80100
C559        C  0.14239922  0.57147326  0.15166152     0.79900
N560        N  0.12482843  0.57781813  0.13448090    -0.78400
C561        C  0.11122876  0.56007682  0.12253308     0.82400
N562        N  0.11483858  0.53574446  0.12843536    -0.78300
C563        C  0.13203719  0.52900002  0.14573576     0.82500
N564        N  0.14614916  0.54685723  0.15705086    -0.80100
C565        C  0.41026729  0.12212133  0.15248155     0.79900
N566        N  0.40197260  0.10501653  0.13569682    -0.78400
C567        C  0.41813568  0.08922343  0.12414082     0.82400
N568        N  0.44278927  0.09088397  0.12960627    -0.78300
C569        C  0.45146715  0.10780952  0.14637387     0.82500
N570        N  0.43509413  0.12355565  0.15789188    -0.80100
C571        C  0.59995317  0.12579352  0.14551267     0.79900
N572        N  0.57542013  0.12718002  0.15250860    -0.78400
C573        C  0.55805835  0.11326446  0.14021687     0.82400
N574        N  0.56540174  0.09799986  0.12137403    -0.78300
C575        C  0.58965423  0.09641852  0.11428658     0.82500
N576        N  0.60688277  0.11058327  0.12628396    -0.80100
C577        C  0.40245179  0.12972109  0.85280785     0.79900
N578        N  0.42741172  0.13392939  0.84967422    -0.78400
C579        C  0.44414774  0.12220710  0.86479680     0.82400
N580        N  0.43565412  0.10608970  0.88245004    -0.78300
C581        C  0.41092905  0.10150365  0.88545233     0.82500
N582        N  0.39443365  0.11363430  0.87070416    -0.80100
C583        C  0.59267077  0.12388793  0.84800396     0.79900
N584        N  0.56799712  0.13031808  0.84746695    -0.78400
C585        C  0.55121673  0.11755348  0.86173545     0.82400
N586        N  0.55916630  0.09818752  0.87595868    -0.78300
C587        C  0.58360361  0.09165855  0.87663464     0.82500
N588        N  0.60027910  0.10448787  0.86249342    -0.80100
C589        C  0.40349430  0.82928378  0.15109638     0.79900
N590        N  0.39630262  0.84608844  0.13353376    -0.78400
C591        C  0.41308502  0.86168147  0.12272838     0.82400
N592        N  0.43733965  0.86065315  0.13006058    -0.78300
C593        C  0.44505782  0.84361297  0.14718971     0.82500
N594        N  0.42806889  0.82783215  0.15765896    -0.80100
C595        C  0.59411996  0.83833362  0.15898863     0.79900
N596        N  0.60078166  0.85500598  0.14104566    -0.78400
C597        C  0.58323380  0.86820130  0.12848293     0.82400
N598        N  0.55881966  0.86479503  0.13424970    -0.78300
C599        C  0.55167198  0.84813444  0.15194853     0.82500
N600        N  0.56936097  0.83429132  0.16396552    -0.80100
C601        C  0.85486405  0.38498306  0.15026243     0.79900
N602        N  0.84564772  0.40873243  0.14908780    -0.78400
C603        C  0.85643866  0.42571331  0.13352455     0.82400
N604        N  0.87648339  0.41884440  0.11953589    -0.78300
C605        C  0.88583023  0.39534415  0.12037328     0.82500
N606        N  0.87489087  0.37852620  0.13590297    -0.80100
C607        C  0.84001055  0.57421261  0.13797832     0.79900
N608        N  0.83601138  0.54941396  0.14246797    -0.78400
C609        C  0.84768297  0.53192104  0.12792930     0.82400
N610        N  0.86376867  0.53944170  0.10973424    -0.78300
C611        C  0.86837018  0.56391651  0.10557017     0.82500
N612        N  0.85629173  0.58109386  0.11975786    -0.80100
C613        C  0.85049944  0.12778105  0.40574216     0.79900
N614        N  0.84906993  0.13457352  0.43032038    -0.78400
C615        C  0.86362272  0.12282616  0.44752607     0.82400
N616        N  0.87979707  0.10480981  0.43989543    -0.78300
C617        C  0.88138987  0.09789118  0.41554142     0.82500
N618        N  0.86667175  0.10951657  0.39855766    -0.80100
C619        C  0.85430640  0.13076659  0.59648620     0.79900
N620        N  0.85272273  0.13709994  0.57178866    -0.78400
C621        C  0.86548617  0.12364983  0.55427316     0.82400
N622        N  0.87866079  0.10330424  0.56139769    -0.78300
C623        C  0.88026182  0.09675136  0.58574674     0.82500
N624        N  0.86839906  0.11073566  0.60330751    -0.80100
C625        C  0.15355294  0.83166345  0.40364823     0.79900
N626        N  0.15887039  0.82791121  0.42825756    -0.78400
C627        C  0.14827183  0.84280524  0.44597558     0.82400
N628        N  0.13215909  0.86107142  0.43894720    -0.78300
C629        C  0.12624121  0.86457865  0.41457163     0.82500
N630        N  0.13720777  0.84990687  0.39701985    -0.80100
C631        C  0.14892864  0.82677905  0.59413754     0.79900
N632        N  0.13276640  0.84514977  0.60112900    -0.78400
C633        C  0.12225280  0.86032760  0.58381448     0.82400
N634        N  0.12853166  0.85720813  0.55950179    -0.78300
C635        C  0.14519259  0.83958024  0.55219645     0.82500
N636        N  0.15501405  0.82378300  0.56949687    -0.80100
C637        C  0.84953296  0.38139424  0.85700016     0.79900
N638        N  0.86603423  0.37318917  0.87442110    -0.78400
C639        C  0.88052519  0.38935669  0.88733859     0.82400
N640        N  0.87791716  0.41410157  0.88296549    -0.78300
C641        C  0.86183367  0.42292408  0.86559155     0.82500
N642        N  0.84724938  0.40647241  0.85264934    -0.80100
C643        C  0.84185691  0.57142600  0.86422922     0.79900
N644        N  0.85709928  0.57988372  0.88263429    -0.78400
C645        C  0.87192474  0.56398321  0.89562102     0.82400
N646        N  0.87103076  0.53920580  0.89019309    -0.78300
C647        C  0.85542359  0.53026236  0.87221237     0.82500
N648        N  0.84116747  0.54654189  0.85885986    -0.80100
C649        C  0.86131450  0.82342632  0.40528232     0.79900
N650        N  0.86024483  0.81531626  0.42943695    -0.78400
C651        C  0.87453767  0.82652962  0.44718791     0.82400
N652        N  0.88951618  0.84585955  0.44065316    -0.78300
C653        C  0.89090485  0.85408948  0.41676722     0.82500
N654        N  0.87640031  0.84295341  0.39915980    -0.80100
C655        C  0.85876736  0.81730162  0.59538421     0.79900
N656        N  0.87420529  0.83613389  0.60261370    -0.78400
C657        C  0.88831187  0.84848714  0.58558267     0.82400
N658        N  0.88708474  0.84168489  0.56125510    -0.78300
C659        C  0.87171205  0.82312396  0.55354238     0.82500
N660        N  0.85707078  0.81111582  0.57062657    -0.80100
C661        C  0.40240935  0.83120730  0.84897914     0.79900
N662        N  0.42668959  0.82901053  0.84142255    -0.78400
C663        C  0.44469846  0.84304565  0.85257606     0.82400
N664        N  0.43803947  0.85962103  0.87063988    -0.78300
C665        C  0.41392036  0.86247347  0.87788806     0.82500
N666        N  0.39617346  0.84781093  0.86723518    -0.80100
C667        C  0.59309464  0.82864402  0.84309635     0.79900
N668        N  0.56837528  0.82699727  0.83684782    -0.78400
C669        C  0.55120006  0.84097470  0.84954824     0.82400
N670        N  0.55872008  0.85523671  0.86906129    -0.78300
C671        C  0.58298666  0.85648641  0.87597743     0.82500
N672        N  0.60008201  0.84322294  0.86272227    -0.80100
O673        O  0.26283637  0.73092919  0.79586202    -0.88700
C674        C  0.30090499  0.73667784  0.72938268     0.87400
Mg675      Mg  0.24105773  0.69855194  0.80581128     1.58100
O676        O  0.24525795  0.77146306  0.73297680    -0.88400
O677        O  0.25773581  0.77118108  0.79103791    -0.75700
C678        C  0.17365726  0.67275727  0.70547843     0.92400
O679        O  0.28954781  0.68709990  0.76441952    -0.75500
O680        O  0.18475797  0.66162616  0.72324617    -0.83000
Mg681      Mg  0.30057007  0.72425225  0.78274905     1.58000
C682        C  0.19582100  0.77021180  0.67300011     0.92300
O683        O  0.31747989  0.75949066  0.80149904    -0.81300
H684        H  0.22437819  0.79809921  0.74894188    -0.06600
C685        C  0.24025766  0.70398476  0.69827536     0.87300
O686        O  0.20486838  0.71707425  0.79235434    -0.75800
O687        O  0.29179925  0.74447771  0.74918894    -0.88600
O688        O  0.21826470  0.77563356  0.67861532    -0.81400
C689        C  0.29215303  0.80224787  0.69688325     0.92500
C690        C  0.32248280  0.78196496  0.79527399     0.92300
Mg691      Mg  0.19400435  0.73056300  0.71864604     1.58000
O692        O  0.17779378  0.69559414  0.70029046    -0.81300
O693        O  0.20476081  0.76784593  0.73720231    -0.75500
O694        O  0.29779692  0.79746400  0.71952811    -0.81400
O695        O  0.30993244  0.70214334  0.81768812    -0.83100
O696        O  0.19720343  0.65598782  0.78116264    -0.81400
C697        C  0.22492962  0.78004291  0.73987002     0.86800
O698        O  0.20279385  0.71023096  0.75207506    -0.88600
O699        O  0.23171757  0.72411674  0.70575945    -0.88700
O700        O  0.23809170  0.68407783  0.71096310    -0.75700
Mg701      Mg  0.27757824  0.78170288  0.75432501     1.58000
O702        O  0.27421266  0.79143066  0.68577696    -0.83100
H703        H  0.24530227  0.75202535  0.82134085    -0.06800
O704        O  0.24910818  0.68323696  0.76929497    -0.88400
H705        H  0.27000122  0.65654677  0.75347542    -0.06600
H706        H  0.17558801  0.72776379  0.77086312    -0.06800
C707        C  0.26944611  0.67470020  0.76235177     0.86700
C708        C  0.25512307  0.75127170  0.80365123     0.87300
C709        C  0.19350192  0.71844497  0.77160755     0.87400
H710        H  0.25054743  0.70347302  0.68084420    -0.06800
O711        O  0.28932477  0.73856853  0.70875797    -0.75800
Mg712      Mg  0.21761404  0.67290810  0.74707203     1.58000
H713        H  0.31890018  0.72748847  0.72970987    -0.06800
C714        C  0.29795183  0.68513266  0.82923777     0.92400
O715        O  0.21747351  0.66440514  0.81644244    -0.83100
C716        C  0.20079056  0.65233977  0.80445342     0.92400
O717        O  0.31139017  0.79255964  0.77717499    -0.83000
Mg718      Mg  0.25250160  0.75692695  0.69617768     1.58200
O719        O  0.27506072  0.68043174  0.82456238    -0.81400
O720        O  0.18426008  0.75215424  0.68325876    -0.83100
O721        O  0.76664159  0.71873454  0.70358217    -0.88700
C722        C  0.80119611  0.71397239  0.77184662     0.87400
Mg723      Mg  0.74453167  0.75066049  0.69278347     1.58100
O724        O  0.74687117  0.67715598  0.76616249    -0.88400
O725        O  0.76204059  0.67841720  0.70852262    -0.75700
C726        C  0.66968001  0.77349525  0.78943296     0.92400
O727        O  0.78996974  0.76336029  0.73671621    -0.75500
O728        O  0.68200589  0.78504112  0.77267417    -0.83000
Mg729      Mg  0.80323754  0.72664400  0.71902116     1.58000
C730        C  0.69469434  0.67814288  0.82357683     0.92300
O731        O  0.82273037  0.69230802  0.70204022    -0.81300
H732        H  0.72789545  0.64993693  0.74905475    -0.06600
C733        C  0.73712763  0.74464251  0.80032793     0.87300
O734        O  0.70813555  0.73094262  0.70405390    -0.75800
O735        O  0.79333210  0.70563966  0.75182309    -0.88600
O736        O  0.71785769  0.67375757  0.82025145    -0.81400
C737        C  0.79263040  0.64723199  0.80443269     0.92500
C738        C  0.82722227  0.66959066  0.70757769     0.92300
Mg739      Mg  0.69338639  0.71650253  0.77682713     1.58000
O740        O  0.67388550  0.75064395  0.79456690    -0.81300
O741        O  0.70673229  0.67981204  0.75900768    -0.75500
O742        O  0.79847758  0.65090977  0.78155272    -0.81400
O743        O  0.81378810  0.74912836  0.68448876    -0.83100
O744        O  0.69825256  0.79119834  0.71590859    -0.81400
C745        C  0.72730602  0.66804310  0.75802583     0.86800
O746        O  0.70332732  0.73729429  0.74420995    -0.88600
O747        O  0.73010068  0.72433133  0.79197551    -0.88700
O748        O  0.73514377  0.76456448  0.78772654    -0.75700
Mg749      Mg  0.78019078  0.66780088  0.74598913     1.58000
O750        O  0.77506894  0.65945301  0.81491619    -0.83100
H751        H  0.75082425  0.69712369  0.67754866    -0.06800
O752        O  0.74978864  0.76555971  0.72996428    -0.88400
H753        H  0.76863393  0.79311060  0.74666599    -0.06600
H754        H  0.67793061  0.71911797  0.72376432    -0.06800
C755        C  0.76931480  0.77494088  0.73783421     0.86700
C756        C  0.75974137  0.69818510  0.69563745     0.87300
C757        C  0.69554524  0.72899896  0.72411341     0.87400
H758        H  0.74600955  0.74530971  0.81845120    -0.06800
O759        O  0.78856438  0.71223624  0.79188078    -0.75800
Mg760      Mg  0.71671875  0.77483563  0.75058117     1.58000
H761        H  0.81890052  0.72369246  0.77214838    -0.06800
C762        C  0.80205803  0.76565338  0.67201973     0.92400
O763        O  0.72110099  0.78455183  0.68163346    -0.83100
C764        C  0.70366334  0.79601583  0.69321478     0.92400
O765        O  0.81502512  0.65786419  0.72428448    -0.83000
Mg766      Mg  0.75202698  0.69276635  0.80305720     1.58200
O767        O  0.77892167  0.77005826  0.67567302    -0.81400
O768        O  0.68294271  0.69444116  0.81097706    -0.83100
O769        O  0.75459773  0.77483718  0.26766171    -0.88700
C770        C  0.76256084  0.70777544  0.30296993     0.87400
Mg771      Mg  0.72115318  0.78475180  0.24747870     1.58100
O772        O  0.79729860  0.71344458  0.24706840    -0.88400
O773        O  0.79493571  0.77121142  0.26169871    -0.75700
C774        C  0.69872843  0.68852561  0.17345972     0.92400
O775        O  0.71240769  0.74124415  0.29332328    -0.75500
O776        O  0.68756504  0.70634787  0.18457849    -0.83000
Mg777      Mg  0.74925563  0.76044430  0.30480127     1.58000
C778        C  0.79477787  0.65432642  0.19560605     0.92300
O779        O  0.78416969  0.77976309  0.32153346    -0.81300
H780        H  0.82334517  0.73088150  0.22670754    -0.06600
C781        C  0.72974272  0.67810322  0.23984897     0.87300
O782        O  0.73994334  0.77459201  0.21008511    -0.75800
O783        O  0.77025747  0.72783165  0.29461407    -0.88600
O784        O  0.80059939  0.65820293  0.21839593    -0.81400
C785        C  0.82928091  0.67659551  0.29253331     0.92500
C786        C  0.80682663  0.77392948  0.32606215     0.92300
Mg787      Mg  0.75594227  0.70151769  0.19553091     1.58000
O788        O  0.72120020  0.68248285  0.17853790    -0.81300
O789        O  0.79284895  0.72014043  0.20696603    -0.75500
O790        O  0.82507623  0.69942054  0.29798264    -0.81400
O791        O  0.72699298  0.79460286  0.31578696    -0.83100
O792        O  0.67977723  0.76217305  0.20195985    -0.81400
C793        C  0.80542363  0.72156317  0.22701400     0.86800
O794        O  0.73489964  0.73428278  0.20575000    -0.88600
O795        O  0.74984409  0.68686387  0.23262296    -0.88700
O796        O  0.70941854  0.69013439  0.23764623    -0.75700
Mg797      Mg  0.80722137  0.73423705  0.27995566     1.58000
O798        O  0.81709026  0.66544658  0.27539381    -0.83100
H799        H  0.77469668  0.80125701  0.25053628    -0.06800
O800        O  0.70756204  0.74737253  0.25311471    -0.88400
H801        H  0.68215037  0.72935869  0.27380384    -0.06600
H802        H  0.75153236  0.75512880  0.17954961    -0.06800
C803        C  0.69982008  0.73913608  0.27329404     0.86700
C804        C  0.77459976  0.78332826  0.25980029     0.87300
C805        C  0.74228284  0.75454975  0.19754741     0.87400
H806        H  0.72953344  0.66001115  0.24878731    -0.06800
O807        O  0.76426486  0.68769113  0.29046150    -0.75800
Mg808      Mg  0.69770086  0.72738255  0.21979696     1.58000
H809        H  0.75343632  0.70746704  0.32103928    -0.06800
C810        C  0.70824044  0.80465029  0.30530211     0.92400
O811        O  0.68614519  0.79565450  0.22567734    -0.83100
C812        C  0.67453394  0.78456511  0.20810540     0.92400
O813        O  0.81779524  0.75613649  0.31465253    -0.83000
Mg814      Mg  0.78260508  0.67630046  0.25330022     1.58200
O815        O  0.70182513  0.79951644  0.28295976    -0.81400
O816        O  0.77810479  0.66718279  0.18461594    -0.83100
O817        O  0.73213153  0.22590962  0.79626634    -0.88700
C818        C  0.69564952  0.21928061  0.72934448     0.87400
Mg819      Mg  0.75395421  0.25805485  0.80607274     1.58100
O820        O  0.75091505  0.18386213  0.73410495    -0.88400
O821        O  0.73762506  0.18566220  0.79219247    -0.75700
C822        C  0.82433829  0.28130593  0.70731836     0.92400
O823        O  0.70691899  0.26948548  0.76356116    -0.75500
O824        O  0.81379300  0.29245408  0.72547738    -0.83000
Mg825      Mg  0.69488096  0.23281224  0.78216663     1.58000
C826        C  0.80127371  0.18422154  0.67454544     0.92300
O827        O  0.67654035  0.19837418  0.80078878    -0.81300
H828        H  0.77130474  0.15716392  0.75034835    -0.06600
C829        C  0.75748343  0.25081951  0.69874117     0.87300
O830        O  0.79031775  0.23874407  0.79379117    -0.75800
O831        O  0.70434211  0.21168519  0.74931756    -0.88600
O832        O  0.77877489  0.17829463  0.67978120    -0.81400
C833        C  0.70387650  0.15218690  0.69876182     0.92500
C834        C  0.67215676  0.17556905  0.79533369     0.92300
Mg835      Mg  0.80251339  0.22424816  0.72013150     1.58000
O836        O  0.81886864  0.25899650  0.70110205    -0.81300
O837        O  0.79135611  0.18722057  0.73883600    -0.75500
O838        O  0.69911500  0.15711865  0.72159399    -0.81400
O839        O  0.68497575  0.25567452  0.81641616    -0.83100
O840        O  0.79889402  0.29980047  0.78211747    -0.81400
C841        C  0.77105656  0.17516910  0.74123785     0.86800
O842        O  0.79348531  0.24493524  0.75349378    -0.88600
O843        O  0.76522606  0.23056564  0.70661050    -0.88700
O844        O  0.76011046  0.27088356  0.71118550    -0.75700
Mg845      Mg  0.71843074  0.17442603  0.75560196     1.58000
O846        O  0.72116908  0.16340249  0.68682430    -0.83100
H847        H  0.74915508  0.20546649  0.82240166    -0.06800
O848        O  0.74724018  0.27279828  0.76918359    -0.88400
H849        H  0.72721561  0.29955847  0.75263031    -0.06600
H850        H  0.81997870  0.22730365  0.77296475    -0.06800
C851        C  0.72724906  0.28154319  0.76172599     0.86700
C852        C  0.73972605  0.20579059  0.80455027     0.87300
C853        C  0.80218019  0.23687432  0.77327479     0.87400
H854        H  0.74768505  0.25138064  0.68109749    -0.06800
O855        O  0.70751927  0.21695445  0.70886948    -0.75800
Mg856      Mg  0.77959629  0.28234846  0.74781556     1.58000
H857        H  0.67780927  0.22877705  0.72941667    -0.06800
C858        C  0.69679344  0.27295120  0.82766755     0.92400
O859        O  0.77729145  0.29186441  0.81682277    -0.83100
C860        C  0.79435935  0.30372219  0.80521248     0.92400
O861        O  0.68422627  0.16436991  0.77814308    -0.83000
Mg862      Mg  0.74411194  0.19777089  0.69694235     1.58200
O863        O  0.71984705  0.27723069  0.82343181    -0.81400
O864        O  0.81237239  0.20235097  0.68514585    -0.83100
C865        C  0.14740772  0.38185427  0.84751349     0.79900
N866        N  0.15320925  0.40655300  0.84515037    -0.78400
C867        C  0.14178789  0.42369694  0.86016468     0.82400
N868        N  0.12490356  0.41595368  0.87747460    -0.78300
C869        C  0.11872228  0.39152330  0.87974768     0.82500
N870        N  0.12994043  0.37467119  0.86449009    -0.80100
C871        C  0.14565664  0.57262700  0.85372873     0.79900
N872        N  0.12856447  0.57913586  0.87144609    -0.78400
C873        C  0.11655717  0.56151415  0.88520654     0.82400
N874        N  0.12238977  0.53713813  0.88138860    -0.78300
C875        C  0.13994503  0.53022410  0.86431302     0.82500
N876        N  0.15121425  0.54801260  0.85000100    -0.80100
O877        O  0.24798428  0.26939623  0.76722933    -0.88700
C878        C  0.25600971  0.20326421  0.80381081     0.87400
Mg879      Mg  0.21555614  0.27748058  0.74518244     1.58100
O880        O  0.29187857  0.20997874  0.74898215    -0.88400
O881        O  0.28855610  0.26771281  0.76306638    -0.75700
C882        C  0.19724881  0.17863136  0.67315777     0.92400
O883        O  0.20512214  0.23571265  0.79239832    -0.75500
O884        O  0.18469043  0.19513543  0.68487130    -0.83000
Mg885      Mg  0.24110194  0.25585384  0.80448929     1.58000
C886        C  0.29448920  0.15020636  0.69842727     0.92300
O887        O  0.27481200  0.27615489  0.82239583    -0.81300
H888        H  0.31807681  0.22776172  0.72910150    -0.06600
C889        C  0.22690426  0.17082175  0.74102179     0.87300
O890        O  0.23584722  0.26635698  0.70904293    -0.75800
O891        O  0.26310154  0.22360964  0.79555318    -0.88600
O892        O  0.29988977  0.15592486  0.72090601    -0.81400
C893        C  0.32353822  0.17518148  0.79598091     0.92500
C894        C  0.29726491  0.27057829  0.82807024     0.92300
Mg895      Mg  0.25329018  0.19423121  0.69638254     1.58000
O896        O  0.22006986  0.17432710  0.67822659    -0.81300
O897        O  0.28912928  0.21457858  0.70848615    -0.75500
O898        O  0.31707452  0.19732124  0.80170750    -0.81400
O899        O  0.21782622  0.28988864  0.81338652    -0.83100
O900        O  0.17603677  0.25155644  0.69971413    -0.81400
C901        C  0.30058389  0.21766412  0.72901539     0.86800
O902        O  0.23099421  0.22598017  0.70540118    -0.88600
O903        O  0.24665076  0.18021168  0.73361015    -0.88700
O904        O  0.20616163  0.18203870  0.73864018    -0.75700
Mg905      Mg  0.30025414  0.23111768  0.78212043     1.58000
O906        O  0.31410940  0.16352586  0.77757106    -0.83100
H907        H  0.26751044  0.29691471  0.75120393    -0.06800
O908        O  0.20247238  0.23993872  0.75181379    -0.88400
H909        H  0.17603114  0.22271828  0.77187037    -0.06600
H910        H  0.24813686  0.24634606  0.67918744    -0.06800
C911        C  0.19364923  0.23259905  0.77187374     0.86700
C912        C  0.26784735  0.27892684  0.76034645     0.87300
C913        C  0.23840439  0.24611289  0.69693852     0.87400
H914        H  0.22740825  0.15298359  0.75044582    -0.06800
O915        O  0.25931087  0.18310409  0.79166663    -0.75800
Mg916      Mg  0.19384233  0.21816155  0.71924501     1.58000
H917        H  0.24620939  0.20268711  0.82151601    -0.06800
C918        C  0.19993605  0.29986677  0.80141375     0.92400
O919        O  0.18171372  0.28640268  0.72160145    -0.83100
C920        C  0.17080815  0.27426712  0.70431035     0.92400
O921        O  0.30914308  0.25316796  0.81707014    -0.83000
Mg922      Mg  0.27946826  0.17223358  0.75508488     1.58200
O923        O  0.19478495  0.29404490  0.77891129    -0.81400
O924        O  0.27651762  0.16050281  0.68688183    -0.83100
O925        O  0.26670561  0.76943377  0.24677118    -0.88700
C926        C  0.30166541  0.70216869  0.24004361     0.87400
Mg927      Mg  0.24538685  0.77937347  0.27925070     1.58100
O928        O  0.24662246  0.70836427  0.20441677    -0.88400
O929        O  0.26160287  0.76588160  0.20634374    -0.75700
C930        C  0.17326467  0.68125064  0.30230907     0.92400
O931        O  0.29205061  0.73669879  0.29047166    -0.75500
O932        O  0.18503742  0.69803080  0.31440534    -0.83000
Mg933      Mg  0.30376673  0.75521190  0.25359055     1.58000
C934        C  0.19419149  0.65065762  0.20461617     0.92300
O935        O  0.32100024  0.77354965  0.21909655    -0.81300
H936        H  0.22677633  0.72635172  0.17845224    -0.06600
C937        C  0.23900674  0.67231885  0.27120649     0.87300
O938        O  0.20873828  0.76805233  0.26048029    -0.75800
O939        O  0.29389835  0.72241891  0.23221342    -0.88600
O940        O  0.21734420  0.65409449  0.20014824    -0.81400
C941        C  0.29195614  0.67042556  0.17315974     0.92500
C942        C  0.32570364  0.76882417  0.19620026     0.92300
Mg943      Mg  0.19433514  0.69609535  0.24498518     1.58000
O944        O  0.17731600  0.67718612  0.27918667    -0.81300
O945        O  0.20646534  0.71518194  0.20851780    -0.75500
O946        O  0.29816438  0.69317944  0.17704672    -0.81400
O947        O  0.31416810  0.79012391  0.27611703    -0.83100
O948        O  0.20070106  0.75548444  0.32145688    -0.81400
C949        C  0.22674293  0.71674031  0.19621592     0.86800
O950        O  0.20465017  0.72793453  0.26665370    -0.88600
O951        O  0.23118537  0.68112206  0.25137658    -0.88700
O952        O  0.23769131  0.68438324  0.29160904    -0.75700
Mg953      Mg  0.27995372  0.72875907  0.19468319     1.58000
O954        O  0.27408053  0.66025238  0.18501495    -0.83100
H955        H  0.25041374  0.79611865  0.22642189    -0.06800
O956        O  0.25170338  0.74225231  0.29380895    -0.88400
H957        H  0.27170942  0.72568328  0.32057888    -0.06600
H958        H  0.17829184  0.74823520  0.24980972    -0.06800
C959        C  0.27168887  0.73477882  0.30254378     0.86700
C960        C  0.25945841  0.77805860  0.22664310     0.87300
C961        C  0.19628039  0.74797952  0.25896166     0.87400
H962        H  0.24807411  0.65426887  0.27098603    -0.06800
O963        O  0.28894997  0.68226478  0.23788071    -0.75800
Mg964      Mg  0.21915420  0.72102266  0.30373997     1.58000
H965        H  0.31943533  0.70150128  0.24959057    -0.06800
C966        C  0.30226770  0.80202317  0.29306600     0.92400
O967        O  0.22260827  0.78990006  0.31314511    -0.83100
C968        C  0.20551338  0.77851211  0.32512352     0.92400
O969        O  0.31466874  0.75134570  0.18437144    -0.83000
Mg970      Mg  0.25204346  0.67115316  0.21893709     1.58200
O971        O  0.27954732  0.79702953  0.29819116    -0.81400
O972        O  0.18269535  0.66262628  0.22169504    -0.83100
O973        O  0.73543768  0.18434078  0.24847171    -0.88700
C974        C  0.69821345  0.25016275  0.23913076     0.87400
Mg975      Mg  0.75641756  0.17620062  0.28165642     1.58100
O976        O  0.75415977  0.24521838  0.20448330    -0.88400
O977        O  0.74167552  0.18722397  0.20810108    -0.75700
C978        C  0.82719919  0.27568241  0.30104955     0.92400
O979        O  0.70878503  0.21837725  0.29023996    -0.75500
O980        O  0.81627159  0.25821372  0.31289560    -0.83000
Mg981      Mg  0.69782874  0.19785359  0.25403290     1.58000
C982        C  0.80360130  0.30592730  0.20410799     0.92300
O983        O  0.68153745  0.17732344  0.21958855    -0.81300
H984        H  0.77490181  0.22800415  0.17849138    -0.06600
C985        C  0.75995216  0.28310726  0.27064824     0.87300
O986        O  0.79309230  0.18780635  0.26244051    -0.75800
O987        O  0.70706396  0.23007241  0.23194849    -0.88600
O988        O  0.78102896  0.30049216  0.19883349    -0.81400
C989        C  0.70761270  0.27975015  0.17179879     0.92500
C990        C  0.67743718  0.18175309  0.19649198     0.92300
Mg991      Mg  0.80527471  0.26070163  0.24471041     1.58000
O992        O  0.82150071  0.28123134  0.27863464    -0.81300
O993        O  0.79456025  0.24057725  0.20835990    -0.75500
O994        O  0.70259335  0.25693547  0.17651606    -0.81400
O995        O  0.68791404  0.16406261  0.27788738    -0.83100
O996        O  0.80131042  0.20182868  0.32171978    -0.81400
C997        C  0.77442460  0.23779489  0.19619192     0.86800
O998        O  0.79594266  0.22833406  0.26655826    -0.88600
O999        O  0.76777957  0.27412616  0.25081671    -0.88700
O1000       O  0.76228088  0.27165074  0.29127242    -0.75700
Mg1001     Mg  0.72207205  0.22312640  0.19508811     1.58000
O1002       O  0.72459669  0.29148147  0.18353462    -0.83100
H1003       H  0.75355123  0.15798849  0.22904299    -0.06800
O1004       O  0.74919314  0.21372838  0.29469153    -0.88400
H1005       H  0.72817468  0.23156925  0.32003892    -0.06600
H1006       H  0.82277375  0.20801628  0.25019397    -0.06800
C1007       C  0.72883353  0.22141097  0.30255235     0.86700
C1008       C  0.74369180  0.17561492  0.22868751     0.87300
C1009       C  0.80484147  0.20819780  0.25957235     0.87400
H1010       H  0.75026436  0.30082925  0.27032487    -0.06800
O1011       O  0.71013248  0.27051996  0.23679886    -0.75800
Mg1012     Mg  0.78177024  0.23549366  0.30366076     1.58000
H1013       H  0.68019495  0.25029959  0.24834368    -0.06800
C1014       C  0.69951456  0.15341785  0.29571189     0.92400
O1015       O  0.77891677  0.16732568  0.31647852    -0.83100
C1016       C  0.79631417  0.17929830  0.32740971     0.92400
O1017       O  0.68859155  0.19935524  0.18504382    -0.83000
Mg1018     Mg  0.74683100  0.28252609  0.21794815     1.58200
O1019       O  0.72206922  0.15893450  0.30097964    -0.81400
O1020       O  0.81526868  0.29475900  0.22152008    -0.83100
C1021       C  0.14801942  0.13332325  0.40147992     0.79900
N1022       N  0.12995439  0.11701787  0.39435236    -0.78400
C1023       C  0.11657697  0.10423331  0.41164226     0.82400
N1024       N  0.12096724  0.10833058  0.43623709    -0.78300
C1025       C  0.13902467  0.12442408  0.44368560     0.82500
N1026       N  0.15247185  0.13715113  0.42626133    -0.80100
C1027       C  0.14806800  0.12565017  0.59256869     0.79900
N1028       N  0.13156917  0.10712845  0.59797178    -0.78400
C1029       C  0.11909563  0.09505645  0.57950293     0.82400
N1030       N  0.12314043  0.10189370  0.55548748    -0.78300
C1031       C  0.13973549  0.12009490  0.54969472     0.82500
N1032       N  0.15260668  0.13177449  0.56822822    -0.80100
O1033       O  0.21197650  0.24622576  0.24571568    -0.88700
C1034       C  0.27896012  0.28195629  0.24012693     0.87400
Mg1035     Mg  0.20162517  0.22449402  0.27734926     1.58100
O1036       O  0.27412497  0.22674124  0.20458470    -0.88400
O1037       O  0.21601262  0.24082638  0.20539481    -0.75700
C1038       C  0.29974648  0.15312655  0.30308576     0.92400
O1039       O  0.24426614  0.27124617  0.29016047    -0.75500
O1040       O  0.28226862  0.16474582  0.31437081    -0.83000
Mg1041     Mg  0.22612161  0.28323844  0.25343000     1.58000
C1042       C  0.33366174  0.17568429  0.20651587     0.92300
O1043       O  0.20800924  0.30067324  0.21928314    -0.81300
H1044       H  0.25796810  0.20626574  0.17783516    -0.06600
C1045       C  0.30894876  0.21978991  0.27221373     0.87300
O1046       O  0.21408626  0.18821405  0.25821602    -0.75800
O1047       O  0.25895815  0.27354789  0.23228582    -0.88600
O1048       O  0.32867184  0.19818030  0.20043031    -0.81400
C1049       C  0.31087172  0.27312671  0.17398881     0.92500
C1050       C  0.21287035  0.30549100  0.19650136     0.92300
Mg1051     Mg  0.28717120  0.17473850  0.24535852     1.58000
O1052       O  0.30505082  0.15734720  0.28022768    -0.81300
O1053       O  0.26917197  0.18634897  0.20806845    -0.75500
O1054       O  0.28792155  0.27823329  0.17806428    -0.81400
O1055       O  0.19140770  0.29376506  0.27606219    -0.83100
O1056       O  0.22456466  0.17965259  0.31941158    -0.81400
C1057       C  0.26693036  0.20658980  0.19592783     0.86800
O1058       O  0.25405896  0.18422953  0.26566455    -0.88600
O1059       O  0.30097574  0.21194424  0.25201730    -0.88700
O1060       O  0.29632855  0.21779383  0.29225226    -0.75700
Mg1061     Mg  0.25297862  0.25958006  0.19474487     1.58000
O1062       O  0.32213566  0.25567123  0.18549172    -0.83100
H1063       H  0.18547178  0.22992579  0.22510290    -0.06800
O1064       O  0.23834328  0.23096617  0.29285115    -0.88400
H1065       H  0.25460949  0.25058935  0.32013991    -0.06600
H1066       H  0.23456428  0.15818303  0.24736469    -0.06800
C1067       C  0.24577120  0.25080584  0.30198639     0.86700
C1068       C  0.20354040  0.23894820  0.22550674     0.87300
C1069       C  0.23434760  0.17594576  0.25701493     0.87400
H1070       H  0.32677424  0.22927863  0.27269188    -0.06800
O1071       O  0.29921858  0.26971944  0.23824288    -0.75800
Mg1072     Mg  0.25946242  0.19863378  0.30308333     1.58000
H1073       H  0.27907984  0.29986201  0.24950633    -0.06800
C1074       C  0.17918109  0.28140648  0.29233479     0.92400
O1075       O  0.19033427  0.20154246  0.31061540    -0.83100
C1076       C  0.20143226  0.18443439  0.32270169     0.92400
O1077       O  0.23010622  0.29413165  0.18448042    -0.83000
Mg1078     Mg  0.31114525  0.23296087  0.21941279     1.58200
O1079       O  0.18329737  0.25829205  0.29611166    -0.81400
O1080       O  0.32214608  0.16459510  0.22409424    -0.83100
C1081       C  0.14882057  0.15622072  0.36137919    -0.26600
C1082       C  0.16203765  0.14697426  0.38202761    -0.14700
C1083       C  0.18830591  0.14944033  0.38263537     0.35900
C1084       C  0.20069878  0.16095513  0.36271867    -0.26100
C1085       C  0.18748777  0.17057232  0.34219128    -0.15300
C1086       C  0.16119276  0.16808574  0.34149420     0.37000
N1087       N  0.14715212  0.17735693  0.32057712    -0.89600
H1088       H  0.12867662  0.15416276  0.36077226     0.18100
H1089       H  0.22084588  0.16284814  0.36360895     0.18100
N1090       N  0.20298778  0.13988490  0.40282492    -0.88600
H1091       H  0.12801677  0.17434452  0.32321885     0.35500
H1092       H  0.15238558  0.16692594  0.30485626     0.40600
H1093       H  0.19909051  0.12087016  0.40491296     0.40200
H1094       H  0.19800665  0.14930387  0.41922773     0.35100
C1095       C  0.12049808  0.13558827  0.48409179    -0.26600
C1096       C  0.14207109  0.12898009  0.47069689    -0.14700
C1097       C  0.16429755  0.12327780  0.48391833     0.35900
C1098       C  0.16381375  0.12325118  0.51021745    -0.26100
C1099       C  0.14161752  0.12801733  0.52342356    -0.15300
C1100       C  0.11996352  0.13533560  0.51019643     0.37000
N1101       N  0.09682440  0.14158858  0.52254134    -0.89600
H1102       H  0.10344995  0.13999303  0.47409320     0.18100
H1103       H  0.18034660  0.11740724  0.52031667     0.18100
N1104       N  0.18705720  0.11580010  0.47160534    -0.88600
H1105       H  0.09208608  0.15976934  0.51725650     0.35500
H1106       H  0.09888537  0.14223887  0.54192928     0.40600
H1107       H  0.18523746  0.11567015  0.45221982     0.40200
H1108       H  0.19082738  0.09737115  0.47682497     0.35100
C1109       C  0.18591031  0.14493162  0.61129607    -0.26600
C1110       C  0.16035265  0.13945323  0.61315718    -0.14700
C1111       C  0.14697792  0.14740358  0.63465844     0.35900
C1112       C  0.15943323  0.15994812  0.65385826    -0.26100
C1113       C  0.18518472  0.16458651  0.65252964    -0.15300
C1114       C  0.19857515  0.15721729  0.63080080     0.37000
N1115       N  0.22468533  0.16304671  0.62809158    -0.89600
H1116       H  0.19614498  0.13920133  0.59472193     0.18100
H1117       H  0.14883929  0.16598515  0.67009797     0.18100
N1118       N  0.12057045  0.14382500  0.63725811    -0.88600
H1119       H  0.23095543  0.15858220  0.61008621     0.35500
H1120       H  0.23457647  0.15140290  0.64021335     0.40600
H1121       H  0.11690793  0.12474976  0.63868844     0.40200
H1122       H  0.11167402  0.15100234  0.62143826     0.35100
C1123       C  0.14745999  0.34102861  0.82568028    -0.26600
C1124       C  0.16092965  0.36217759  0.83351756    -0.14700
C1125       C  0.18715964  0.36250633  0.83077506     0.35900
C1126       C  0.19931949  0.34139734  0.82093466    -0.26100
C1127       C  0.18583436  0.32028512  0.81323706    -0.15300
C1128       C  0.15950122  0.32008657  0.81553375     0.37000
N1129       N  0.14444508  0.29896051  0.80845741    -0.89600
H1130       H  0.12731703  0.34056690  0.82793041     0.18100
H1131       H  0.21948382  0.34155386  0.81883539     0.18100
N1132       N  0.20146430  0.38374197  0.83885307    -0.88600
H1133       H  0.13522413  0.29266446  0.82452505     0.35500
H1134       H  0.15531709  0.28399580  0.80226289     0.40600
H1135       H  0.19753752  0.39841946  0.82661610     0.40200
H1136       H  0.22060871  0.38020165  0.83703518     0.35100
C1137       C  0.15277218  0.46298969  0.88157269    -0.26600
C1138       C  0.14774919  0.45065938  0.85900500    -0.14700
C1139       C  0.14449108  0.46483596  0.83701557     0.35900
C1140       C  0.14370799  0.49119894  0.83867634    -0.26100
C1141       C  0.14637028  0.50337195  0.86184793    -0.15300
C1142       C  0.15238751  0.48900981  0.88317755     0.37000
N1143       N  0.15825065  0.50031606  0.90675413    -0.89600
H1144       H  0.15594819  0.45222595  0.89842612     0.18100
H1145       H  0.13952660  0.50214791  0.82218814     0.18100
N1146       N  0.14020943  0.45246781  0.81354742    -0.88600
H1147       H  0.14263653  0.50985307  0.91352487     0.35500
H1148       H  0.17276722  0.51308788  0.90399022     0.40600
H1149       H  0.15659043  0.44286642  0.80884153     0.40200
H1150       H  0.13730886  0.46557596  0.79937825     0.35100
C1151       C  0.17450039  0.61357085  0.80302312    -0.26600
C1152       C  0.18583469  0.63257174  0.81735869    -0.14700
C1153       C  0.18337478  0.63166090  0.84366242     0.35900
C1154       C  0.17026700  0.61190562  0.85496182    -0.26100
C1155       C  0.15967778  0.59263239  0.84065560    -0.15300
C1156       C  0.16163456  0.59370760  0.81433810     0.37000
N1157       N  0.15013344  0.57534204  0.79862162    -0.89600
H1158       H  0.17593987  0.61387084  0.78280625     0.18100
H1159       H  0.16853683  0.61153756  0.87516580     0.18100
N1160       N  0.19381681  0.65089748  0.85905711    -0.88600
H1161       H  0.13104372  0.57473578  0.80283593     0.35500
H1162       H  0.15796496  0.55791975  0.80257763     0.40600
H1163       H  0.20630461  0.64257696  0.87153171     0.40200
H1164       H  0.17932709  0.65894365  0.86948754     0.35100
C1165       C  0.65363152  0.81226926  0.80917664    -0.26600
C1166       C  0.64975658  0.78711752  0.80312500    -0.14700
C1167       C  0.62670952  0.77577343  0.80943148     0.35900
C1168       C  0.60828532  0.78981979  0.82210583    -0.26100
C1169       C  0.61251882  0.81483181  0.82879862    -0.15300
C1170       C  0.63555435  0.82610216  0.82204554     0.37000
N1171       N  0.64097796  0.85177895  0.82726346    -0.89600
H1172       H  0.67109778  0.82123810  0.80415228     0.18100
H1173       H  0.59067534  0.78112259  0.82707384     0.18100
N1174       N  0.62191167  0.75025014  0.80256672    -0.88600
H1175       H  0.64234121  0.85424706  0.84655238     0.35500
H1176       H  0.62646381  0.86283698  0.82033569     0.40600
H1177       H  0.62164530  0.74930589  0.78303133     0.40200
H1178       H  0.60417585  0.74473839  0.80869656     0.35100
C1179       C  0.37736762  0.82489934  0.81072423    -0.26600
C1180       C  0.38237158  0.81810966  0.83544261    -0.14700
C1181       C  0.36725140  0.80017426  0.84735641     0.35900
C1182       C  0.34761962  0.78888504  0.83397762    -0.26100
C1183       C  0.34240299  0.79564937  0.80909431    -0.15300
C1184       C  0.35747868  0.81423893  0.79755787     0.37000
N1185       N  0.35354312  0.82240960  0.77237791    -0.89600
H1186       H  0.38876293  0.83901357  0.80170081     0.18100
H1187       H  0.33628585  0.77478706  0.84307199     0.18100
N1188       N  0.37197853  0.79346052  0.87292817    -0.88600
H1189       H  0.33593033  0.83075221  0.77116477     0.35500
H1190       H  0.35439367  0.80693807  0.76045225     0.40600
H1191       H  0.38959952  0.78503441  0.87360354     0.40200
H1192       H  0.35910483  0.78007930  0.87900404     0.35100
C1193       C  0.48500918  0.86417715  0.84528355    -0.26600
C1194       C  0.47144960  0.84176220  0.84508400    -0.14700
C1195       C  0.48450293  0.81904090  0.84113960     0.35900
C1196       C  0.51082043  0.81909922  0.84012941    -0.26100
C1197       C  0.52429349  0.84142814  0.84301277    -0.15300
C1198       C  0.51115916  0.86429162  0.84415259     0.37000
N1199       N  0.52455877  0.88755465  0.84531092    -0.89600
H1200       H  0.47515940  0.88174433  0.84748794     0.18100
H1201       H  0.52074348  0.80148281  0.83901299     0.18100
N1202       N  0.47175773  0.79558133  0.83975577    -0.88600
H1203       H  0.51218765  0.90263957  0.84652432     0.35500
H1204       H  0.53431915  0.88955148  0.82846269     0.40600
H1205       H  0.45954314  0.79610298  0.82455009     0.40200
H1206       H  0.46133292  0.79317070  0.85614397     0.35100
C1207       C  0.81908667  0.79817395  0.61072765    -0.26600
C1208       C  0.84439261  0.80360353  0.61469605    -0.14700
C1209       C  0.85554454  0.79688953  0.63765530     0.35900
C1210       C  0.84116041  0.78496491  0.65611918    -0.26100
C1211       C  0.81576050  0.77973237  0.65236895    -0.15300
C1212       C  0.80460457  0.78666333  0.62932702     0.37000
N1213       N  0.77884878  0.78176973  0.62394573    -0.89600
H1214       H  0.81035413  0.80339450  0.59323182     0.18100
H1215       H  0.84988440  0.77966556  0.67358853     0.18100
N1216       N  0.88158701  0.80180318  0.64199864    -0.88600
H1217       H  0.76771625  0.79177583  0.63655424     0.35500
H1218       H  0.77549110  0.76266324  0.62611861     0.40600
H1219       H  0.89187315  0.79106400  0.62925929     0.40200
H1220       H  0.88684332  0.79593453  0.65986430     0.35100
C1221       C  0.83335601  0.82485999  0.36824473    -0.26600
C1222       C  0.84707655  0.81058269  0.38540229    -0.14700
C1223       C  0.84778527  0.78437952  0.38276687     0.35900
C1224       C  0.83463252  0.77300665  0.36306590    -0.26100
C1225       C  0.82050987  0.78721905  0.34613717    -0.15300
C1226       C  0.81976644  0.81348307  0.34897497     0.37000
N1227       N  0.80596050  0.82911472  0.33225384    -0.89600
H1228       H  0.83293142  0.84502508  0.37004295     0.18100
H1229       H  0.83522668  0.75286938  0.36102319     0.18100
N1230       N  0.86225927  0.76947849  0.39975288    -0.88600
H1231       H  0.78699269  0.82472939  0.33377548     0.35500
H1232       H  0.81192302  0.82545051  0.31396913     0.40600
H1233       H  0.88105578  0.77421952  0.39722849     0.40200
H1234       H  0.86068673  0.75051776  0.39531061     0.35100
C1235       C  0.85080278  0.81539357  0.48606773    -0.26600
C1236       C  0.87380871  0.81881635  0.47376724    -0.14700
C1237       C  0.89607170  0.81857843  0.48782533     0.35900
C1238       C  0.89475240  0.81761804  0.51395729    -0.26100
C1239       C  0.87168660  0.81692972  0.52651370    -0.15300
C1240       C  0.84948693  0.81465861  0.51247334     0.37000
N1241       N  0.82570153  0.81329019  0.52495089    -0.89600
H1242       H  0.83373004  0.81534415  0.47522528     0.18100
H1243       H  0.91186411  0.81879919  0.52470171     0.18100
N1244       N  0.91994025  0.82038318  0.47549611    -0.88600
H1245       H  0.81127929  0.81160318  0.51190734     0.35500
H1246       H  0.82283250  0.83023964  0.53427255     0.40600
H1247       H  0.92220588  0.80436000  0.46451668     0.40200
H1248       H  0.93447866  0.82039098  0.48851759     0.35100
C1249       C  0.83070114  0.58952082  0.82284079    -0.26600
C1250       C  0.82805084  0.58979343  0.84892943    -0.14700
C1251       C  0.81398354  0.60896205  0.86036887     0.35900
C1252       C  0.80301299  0.62759332  0.84549832    -0.26100
C1253       C  0.80586498  0.62769883  0.81930646    -0.15300
C1254       C  0.81996278  0.60832204  0.80797620     0.37000
N1255       N  0.82331515  0.60742436  0.78140271    -0.89600
H1256       H  0.84173881  0.57499301  0.81397015     0.18100
H1257       H  0.79215734  0.64214564  0.85452237     0.18100
N1258       N  0.81076598  0.60932613  0.88708351    -0.88600
H1259       H  0.81626043  0.59040197  0.77491965     0.35500
H1260       H  0.84249865  0.60781589  0.77761249     0.40600
H1261       H  0.80062879  0.59338041  0.89202837     0.40200
H1262       H  0.79998772  0.62468778  0.89259850     0.35100
C1263       C  0.82642541  0.34116704  0.85647558    -0.26600
C1264       C  0.83437786  0.36253672  0.84344756    -0.14700
C1265       C  0.82950951  0.36424318  0.81763314     0.35900
C1266       C  0.81687763  0.34468058  0.80539062    -0.26100
C1267       C  0.80869418  0.32341561  0.81854292    -0.15300
C1268       C  0.81360778  0.32178419  0.84436287     0.37000
N1269       N  0.80618997  0.30018521  0.85829329    -0.89600
H1270       H  0.83025600  0.33940814  0.87628947     0.18100
H1271       H  0.81322914  0.34628784  0.78553209     0.18100
N1272       N  0.83801998  0.38537372  0.80362374    -0.88600
H1273       H  0.79448536  0.30603607  0.87286882     0.35500
H1274       H  0.82219605  0.29227187  0.86618099     0.40600
H1275       H  0.82249417  0.39366103  0.79518797     0.40200
H1276       H  0.84990506  0.37893114  0.78944762     0.35100
C1277       C  0.83637065  0.46214212  0.86229158    -0.26600
C1278       C  0.85991547  0.45044552  0.86242029    -0.14700
C1279       C  0.88164362  0.46562893  0.86263123     0.35900
C1280       C  0.87941814  0.49154264  0.86453988    -0.26100
C1281       C  0.85601883  0.50317537  0.86618298    -0.15300
C1282       C  0.83421179  0.48830391  0.86421882     0.37000
N1283       N  0.80973080  0.49905943  0.86554124    -0.89600
H1284       H  0.81956128  0.45086049  0.86211979     0.18100
H1285       H  0.89629317  0.50271020  0.86544308     0.18100
N1286       N  0.90634586  0.45537244  0.86079572    -0.88600
H1287       H  0.80767109  0.51144180  0.85060742     0.35500
H1288       H  0.80817653  0.50908754  0.88227458     0.40600
H1289       H  0.90712079  0.44340700  0.84533511     0.40200
H1290       H  0.91048764  0.44539617  0.87700726     0.35100
C1291       C  0.17179546  0.82435914  0.63419727    -0.26600
C1292       C  0.16121315  0.81183345  0.61374051    -0.14700
C1293       C  0.16160215  0.78551678  0.61297295     0.35900
C1294       C  0.17244000  0.77224363  0.63292973    -0.26100
C1295       C  0.18338705  0.78484924  0.65321083    -0.15300
C1296       C  0.18323488  0.81123787  0.65361194     0.37000
N1297       N  0.19405574  0.82520797  0.67373392    -0.89600
H1298       H  0.17148119  0.84459384  0.63491751     0.18100
H1299       H  0.17276701  0.75200978  0.63246449     0.18100
N1300       N  0.15073720  0.77243264  0.59217814    -0.88600
H1301       H  0.21325383  0.82167884  0.67420574     0.35500
H1302       H  0.18603897  0.81921694  0.69054075     0.40600
H1303       H  0.13155103  0.77616039  0.59226815     0.40200
H1304       H  0.15269173  0.75313832  0.59443584     0.35100
C1305       C  0.17360107  0.83019934  0.36187713    -0.26600
C1306       C  0.16671521  0.81757549  0.38383340    -0.14700
C1307       C  0.17217280  0.79196671  0.38616045     0.35900
C1308       C  0.18419591  0.77940537  0.36646568    -0.26100
C1309       C  0.19142223  0.79213065  0.34464238    -0.15300
C1310       C  0.18609989  0.81784136  0.34235171     0.37000
N1311       N  0.19328103  0.83129158  0.32021257    -0.89600
H1312       H  0.16950383  0.84993563  0.36006995     0.18100
H1313       H  0.18839750  0.75970990  0.36851039     0.18100
N1314       N  0.16521676  0.77856244  0.40826347    -0.88600
H1315       H  0.18829375  0.85012039  0.32170108     0.35500
H1316       H  0.18309032  0.82394417  0.30526010     0.40600
H1317       H  0.18141643  0.77087527  0.41598215     0.40200
H1318       H  0.15347329  0.76386501  0.40302680     0.35100
C1319       C  0.15744067  0.86200839  0.48674878    -0.26600
C1320       C  0.15396431  0.84006652  0.47287595    -0.14700
C1321       C  0.15234687  0.81695616  0.48559899     0.35900
C1322       C  0.15175413  0.81664520  0.51188763    -0.26100
C1323       C  0.15273315  0.83901152  0.52558907    -0.15300
C1324       C  0.15702405  0.86172476  0.51291815     0.37000
N1325       N  0.15987110  0.88461519  0.52674559    -0.89600
H1326       H  0.15930940  0.87968477  0.47706814     0.18100
H1327       H  0.14867849  0.79911964  0.52151755     0.18100
N1328       N  0.14960720  0.79382166  0.47242210    -0.88600
H1329       H  0.16252623  0.89970965  0.51465122     0.35500
H1330       H  0.17613945  0.88305766  0.53740912     0.40600
H1331       H  0.16536159  0.79126455  0.46109959     0.40200
H1332       H  0.13380998  0.79495314  0.46101937     0.35100
C1333       C  0.83187281  0.13203104  0.63738013    -0.26600
C1334       C  0.84041232  0.14488843  0.61605416    -0.14700
C1335       C  0.83599504  0.17086148  0.61421350     0.35900
C1336       C  0.82329409  0.18327377  0.63371867    -0.26100
C1337       C  0.81461986  0.17026898  0.65478241    -0.15300
C1338       C  0.81884465  0.14434977  0.65650239     0.37000
N1339       N  0.81062216  0.13020951  0.67770658    -0.89600
H1340       H  0.83509244  0.11212702  0.63912306     0.18100
H1341       H  0.81998887  0.20320459  0.63244177     0.18100
N1342       N  0.84474476  0.18463702  0.59286316    -0.88600
H1343       H  0.79116401  0.13146679  0.67892689     0.35500
H1344       H  0.81832650  0.13813983  0.69381933     0.40600
H1345       H  0.86427992  0.18414661  0.59306703     0.40200
H1346       H  0.83961296  0.20343290  0.59428449     0.35100
C1347       C  0.81133823  0.14046122  0.34806821    -0.26600
C1348       C  0.81069209  0.16670564  0.34763402    -0.14700
C1349       C  0.82263722  0.18003672  0.36728905     0.35900
C1350       C  0.83469902  0.16697282  0.38646275    -0.26100
C1351       C  0.83565893  0.14083528  0.38647320    -0.15300
C1352       C  0.82369943  0.12742658  0.36717827     0.37000
N1353       N  0.82389244  0.10057652  0.36723149    -0.89600
H1354       H  0.80216601  0.12997909  0.33337584     0.18100
H1355       H  0.84395774  0.17738570  0.40116530     0.18100
N1356       N  0.82259338  0.20675516  0.36868223    -0.88600
H1357       H  0.81433910  0.09353066  0.35171874     0.35500
H1358       H  0.81403850  0.09466890  0.38306761     0.40600
H1359       H  0.80409943  0.21307365  0.36864192     0.40200
H1360       H  0.83207115  0.21385480  0.35314704     0.35100
C1361       C  0.88577601  0.13108962  0.48705880    -0.26600
C1362       C  0.86287673  0.12926463  0.47449071    -0.14700
C1363       C  0.84044474  0.12981540  0.48860512     0.35900
C1364       C  0.84153335  0.13022667  0.51488762    -0.26100
C1365       C  0.86460552  0.12978006  0.52734022    -0.15300
C1366       C  0.88690083  0.13129093  0.51313072     0.37000
N1367       N  0.91102259  0.13275206  0.52464656    -0.89600
H1368       H  0.90311217  0.13111858  0.47649280     0.18100
H1369       H  0.82432905  0.12907268  0.52557955     0.18100
N1370       N  0.81646468  0.12823531  0.47690091    -0.88600
H1371       H  0.91452904  0.11630133  0.53446992     0.35500
H1372       H  0.91097720  0.14775473  0.53719218     0.40600
H1373       H  0.81585629  0.11191614  0.46615227     0.40200
H1374       H  0.81441573  0.14358290  0.46503916     0.35100
C1375       C  0.82384031  0.59131591  0.17855123    -0.26600
C1376       C  0.82734086  0.59408308  0.15268692    -0.14700
C1377       C  0.82018586  0.61672302  0.14121200     0.35900
C1378       C  0.81007224  0.63612634  0.15563499    -0.26100
C1379       C  0.80695771  0.63367311  0.18154622    -0.15300
C1380       C  0.81375514  0.61088841  0.19315360     0.37000
N1381       N  0.81000897  0.60749889  0.21957110    -0.89600
H1382       H  0.82936736  0.57401263  0.18744367     0.18100
H1383       H  0.80462552  0.65329465  0.14642166     0.18100
N1384       N  0.82273038  0.61998922  0.11472903    -0.88600
H1385       H  0.81626936  0.58987257  0.22515324     0.35500
H1386       H  0.79075250  0.60788216  0.22296045     0.40600
H1387       H  0.83419378  0.63548464  0.11157217     0.40200
H1388       H  0.80507168  0.62390956  0.10738527     0.35100
C1389       C  0.81576549  0.36502571  0.16590682    -0.26600
C1390       C  0.84195476  0.36548377  0.16512058    -0.14700
C1391       C  0.85544102  0.34654882  0.17745218     0.35900
C1392       C  0.84262544  0.32731307  0.18984802    -0.26100
C1393       C  0.81636709  0.32640916  0.19020780    -0.15300
C1394       C  0.80279025  0.34579874  0.17832250     0.37000
N1395       N  0.77591976  0.34620258  0.17914270    -0.89600
H1396       H  0.80534195  0.37955642  0.15646310     0.18100
H1397       H  0.85337241  0.31293883  0.19917171     0.18100
N1398       N  0.88221133  0.34703691  0.17786084    -0.88600
H1399       H  0.76891104  0.36132162  0.16898933     0.35500
H1400       H  0.77058569  0.34913000  0.19775145     0.40600
H1401       H  0.88876163  0.33038384  0.16996606     0.40200
H1402       H  0.88794834  0.34760517  0.19653046     0.35100
C1403       C  0.84558387  0.46600474  0.15467819    -0.26600
C1404       C  0.84791102  0.45203358  0.13248640    -0.14700
C1405       C  0.84520870  0.46438312  0.10928868     0.35900
C1406       C  0.84289521  0.49031798  0.10868769    -0.26100
C1407       C  0.84331266  0.50466733  0.13068822    -0.15300
C1408       C  0.84338624  0.49220358  0.15401811     0.37000
N1409       N  0.84285772  0.50562055  0.17720122    -0.89600
H1410       H  0.84723565  0.45674186  0.17259994     0.18100
H1411       H  0.84203484  0.49947984  0.09064087     0.18100
N1412       N  0.84480077  0.45114770  0.08595798    -0.88600
H1413       H  0.82633552  0.51602270  0.17797141     0.35500
H1414       H  0.85803715  0.51789656  0.17760742     0.40600
H1415       H  0.83113093  0.43723999  0.08698273     0.40200
H1416       H  0.86214138  0.44282610  0.08277328     0.35100
C1417       C  0.65508344  0.82392109  0.19249020    -0.26600
C1418       C  0.65385438  0.79784241  0.19499936    -0.14700
C1419       C  0.63213674  0.78527754  0.18628337     0.35900
C1420       C  0.61251147  0.79890105  0.17555927    -0.26100
C1421       C  0.61407921  0.82483256  0.17262363    -0.15300
C1422       C  0.63557556  0.83750269  0.18127456     0.37000
N1423       N  0.63739942  0.86418809  0.17887545    -0.89600
H1424       H  0.67142166  0.83377727  0.19922918     0.18100
H1425       H  0.59616919  0.78902483  0.16883805     0.18100
N1426       N  0.62910293  0.75879263  0.18848745    -0.88600
H1427       H  0.65439512  0.87062644  0.18601307     0.35500
H1428       H  0.62331456  0.87210278  0.18994365     0.40600
H1429       H  0.63114993  0.75378539  0.20725865     0.40200
H1430       H  0.64284793  0.74991358  0.17775780     0.35100
C1431       C  0.36315944  0.80626652  0.14861177    -0.26600
C1432       C  0.38430554  0.81294562  0.16272026    -0.14700
C1433       C  0.38601872  0.80490905  0.18779680     0.35900
C1434       C  0.36670800  0.79029537  0.19801370    -0.26100
C1435       C  0.34562954  0.78358287  0.18385486    -0.15300
C1436       C  0.34396480  0.79171423  0.15880771     0.37000
N1437       N  0.32267050  0.78633334  0.14354809    -0.89600
H1438       H  0.36145863  0.81243394  0.12940061     0.18100
H1439       H  0.36806507  0.78418938  0.21727763     0.18100
N1440       N  0.40690863  0.81213214  0.20303783    -0.88600
H1441       H  0.30662768  0.79272457  0.15277402     0.35500
H1442       H  0.32137399  0.76701719  0.14111252     0.40600
H1443       H  0.40539546  0.80441145  0.22092784     0.40200
H1444       H  0.40611421  0.83151572  0.20534098     0.35100
C1445       C  0.48382928  0.86565660  0.15902549    -0.26600
C1446       C  0.47186922  0.84291029  0.15407964    -0.14700
C1447       C  0.48631372  0.82082147  0.15254510     0.35900
C1448       C  0.51266249  0.82236846  0.15414453    -0.26100
C1449       C  0.52458501  0.84553883  0.15715972    -0.15300
C1450       C  0.50989993  0.86712665  0.16063167     0.37000
N1451       N  0.52153189  0.89082304  0.16501909    -0.89600
H1452       H  0.47290066  0.88265167  0.16058325     0.18100
H1453       H  0.52393155  0.80578110  0.15128339     0.18100
N1454       N  0.47442737  0.79732255  0.14737612    -0.88600
H1455       H  0.51487335  0.89778180  0.18206949     0.35500
H1456       H  0.51585249  0.90307143  0.15093088     0.40600
H1457       H  0.46358566  0.79269225  0.16298660     0.40200
H1458       H  0.48778707  0.78317843  0.14549500     0.35100
C1459       C  0.62946002  0.12397481  0.81986308    -0.26600
C1460       C  0.61157672  0.13770404  0.83329949    -0.14700
C1461       C  0.61352461  0.16395983  0.83427516     0.35900
C1462       C  0.63368131  0.17583471  0.82214740    -0.26100
C1463       C  0.65173623  0.16208059  0.80869636    -0.15300
C1464       C  0.64926300  0.13581005  0.80741912     0.37000
N1465       N  0.66698033  0.12089813  0.79387209    -0.89600
H1466       H  0.62813123  0.10378219  0.81911759     0.18100
H1467       H  0.63512401  0.19599515  0.82305768     0.18100
N1468       N  0.59574862  0.17838447  0.84844342    -0.88600
H1469       H  0.65732968  0.11084454  0.78017706     0.35500
H1470       H  0.67492320  0.10811167  0.80628658     0.40600
H1471       H  0.57861667  0.17735664  0.83916439     0.40200
H1472       H  0.60076324  0.19725519  0.84853542     0.35100
C1473       C  0.36367480  0.15448656  0.85023714    -0.26600
C1474       C  0.38356876  0.14275317  0.83768932    -0.14700
C1475       C  0.38338418  0.14140450  0.81131544     0.35900
C1476       C  0.36319955  0.15139696  0.79811438    -0.26100
C1477       C  0.34341356  0.16327031  0.81068807    -0.15300
C1478       C  0.34370128  0.16502888  0.83698912     0.37000
N1479       N  0.32355057  0.17716377  0.85010520    -0.89600
H1480       H  0.36367150  0.15524919  0.87050085     0.18100
H1481       H  0.36320181  0.15031920  0.77786160     0.18100
N1482       N  0.40303049  0.12946466  0.79752542    -0.88600
H1483       H  0.32669407  0.17696089  0.86939527     0.35500
H1484       H  0.30732854  0.16674631  0.84698501     0.40600
H1485       H  0.40490448  0.11113596  0.80395732     0.40200
H1486       H  0.41964323  0.13907149  0.80096069     0.35100
C1487       C  0.48520460  0.12519427  0.88546332    -0.26600
C1488       C  0.47155074  0.12652694  0.86311425    -0.14700
C1489       C  0.48477129  0.12882757  0.84021433     0.35900
C1490       C  0.51104273  0.12775300  0.84012136    -0.26100
C1491       C  0.52438185  0.12424150  0.86241941    -0.15300
C1492       C  0.51135088  0.12405686  0.88538808     0.37000
N1493       N  0.52475346  0.12199474  0.90857695    -0.89600
H1494       H  0.47534569  0.12411170  0.90317035     0.18100
H1495       H  0.52095494  0.12808909  0.82241655     0.18100
N1496       N  0.47216386  0.13085048  0.81674442    -0.88600
H1497       H  0.51241019  0.12180626  0.92377874     0.35500
H1498       H  0.53571436  0.13804057  0.91048675     0.40600
H1499       H  0.46149915  0.14720058  0.81697719     0.40200
H1500       H  0.46029682  0.11548510  0.81467361     0.35100
C1501       C  0.64067765  0.15289619  0.19692527    -0.26600
C1502       C  0.65832463  0.16662675  0.18298147    -0.14700
C1503       C  0.65656542  0.16657360  0.15652872     0.35900
C1504       C  0.63718155  0.15324627  0.14488234    -0.26100
C1505       C  0.61939205  0.14007606  0.15889844    -0.15300
C1506       C  0.62126918  0.13963092  0.18516729     0.37000
N1507       N  0.60374630  0.12539013  0.19976236    -0.89600
H1508       H  0.64179748  0.15271620  0.21715035     0.18100
H1509       H  0.63585034  0.15320957  0.12465479     0.18100
N1510       N  0.67441385  0.17992959  0.14148738    -0.88600
H1511       H  0.60767833  0.12706029  0.21883779     0.35500
H1512       H  0.60622690  0.10655819  0.19515533     0.40600
H1513       H  0.66998471  0.17853930  0.12250185     0.40200
H1514       H  0.69174552  0.17119925  0.14372689     0.35100
C1515       C  0.35744055  0.16679534  0.16742549    -0.26600
C1516       C  0.35382005  0.16225736  0.19303087    -0.14700
C1517       C  0.36983022  0.14531734  0.20551050     0.35900
C1518       C  0.38880030  0.13308003  0.19196942    -0.26100
C1519       C  0.39187097  0.13720254  0.16630552    -0.15300
C1520       C  0.37599535  0.15418236  0.15392135     0.37000
N1521       N  0.37847708  0.15911652  0.12770479    -0.89600
H1522       H  0.34540089  0.17982496  0.15770653     0.18100
H1523       H  0.40090725  0.11985076  0.20133670     0.18100
N1524       N  0.36694680  0.14075472  0.23186344    -0.88600
H1525       H  0.37546248  0.14252399  0.11785286     0.35500
H1526       H  0.39674946  0.16512360  0.12422570     0.40600
H1527       H  0.37104963  0.15739421  0.24125521     0.40200
H1528       H  0.37995065  0.12754170  0.23798798     0.35100
C1529       C  0.49060913  0.13302830  0.15081461    -0.26600
C1530       C  0.47878602  0.10958008  0.15044001    -0.14700
C1531       C  0.49351872  0.08771038  0.15069921     0.35900
C1532       C  0.51957511  0.08967044  0.14909696    -0.26100
C1533       C  0.53138213  0.11298531  0.14748014    -0.15300
C1534       C  0.51689024  0.13495845  0.14908644     0.37000
N1535       N  0.52869853  0.15900226  0.14744289    -0.89600
H1536       H  0.47929647  0.14981677  0.15066113     0.18100
H1537       H  0.53076537  0.07280463  0.14813384     0.18100
N1538       N  0.48188196  0.06352822  0.15187761    -0.88600
H1539       H  0.51538257  0.17324044  0.14888406     0.35500
H1540       H  0.53665209  0.16050453  0.12961835     0.40600
H1541       H  0.47267509  0.06226673  0.16910690     0.40200
H1542       H  0.49532634  0.04934787  0.15158163     0.35100
C1543       C  0.19201107  0.60731219  0.18844702    -0.26600
C1544       C  0.18088696  0.63098678  0.19047700    -0.14700
C1545       C  0.15737017  0.63508439  0.17934707     0.35900
C1546       C  0.14552418  0.61556551  0.16659863    -0.26100
C1547       C  0.15631440  0.59159374  0.16496483    -0.15300
C1548       C  0.18000149  0.58753453  0.17594122     0.37000
N1549       N  0.19195374  0.56353619  0.17420703    -0.89600
H1550       H  0.21008788  0.60415246  0.19697722     0.18100
H1551       H  0.12745870  0.61917691  0.15823820     0.18100
N1552       N  0.14533571  0.65898332  0.18016359    -0.88600
H1553       H  0.20899795  0.56360538  0.18372073     0.35500
H1554       H  0.19615449  0.56032632  0.15536072     0.40600
H1555       H  0.15754991  0.67228493  0.17270523     0.40200
H1556       H  0.14159613  0.66357199  0.19880259     0.35100
C1557       C  0.17459043  0.36432420  0.18521489    -0.26600
C1558       C  0.16901670  0.36201327  0.15972085    -0.14700
C1559       C  0.17858843  0.34117462  0.14623805     0.35900
C1560       C  0.19329049  0.32343762  0.15845112    -0.26100
C1561       C  0.19821926  0.32535728  0.18407085    -0.15300
C1562       C  0.18896685  0.34621093  0.19759238     0.37000
N1563       N  0.19440785  0.34910915  0.22376842    -0.89600
H1564       H  0.16737013  0.38014780  0.19564603     0.18100
H1565       H  0.20038624  0.30763201  0.14789728     0.18100
N1566       N  0.17416822  0.33756750  0.12005537    -0.88600
H1567       H  0.18590315  0.36519321  0.23095239     0.35500
H1568       H  0.21369165  0.35174564  0.22546666     0.40600
H1569       H  0.17941215  0.35372967  0.11043810     0.40200
H1570       H  0.15520176  0.33398128  0.11721255     0.35100
C1571       C  0.11824638  0.46099436  0.15804186    -0.26600
C1572       C  0.14030038  0.44961741  0.14947695    -0.14700
C1573       C  0.16109828  0.46481120  0.14312258     0.35900
C1574       C  0.15863363  0.49095082  0.14411589    -0.26100
C1575       C  0.13587218  0.50217684  0.15078959    -0.15300
C1576       C  0.11581362  0.48697634  0.15871743     0.37000
N1577       N  0.09261476  0.49744502  0.16718252    -0.89600
H1578       H  0.10228935  0.44954832  0.16304612     0.18100
H1579       H  0.17405519  0.50252710  0.13789408     0.18100
N1580       N  0.18421835  0.45467942  0.13377264    -0.88600
H1581       H  0.08446738  0.50744883  0.15257515     0.35500
H1582       H  0.09638251  0.50978248  0.18187746     0.40600
H1583       H  0.18387186  0.43524591  0.13279351     0.40200
H1584       H  0.19823921  0.45940461  0.14650526     0.35100
C1585       C  0.31089224  0.29503709  0.13313548    -0.26600
C1586       C  0.32428594  0.28715734  0.15426228    -0.14700
C1587       C  0.35021213  0.29191897  0.15559061     0.35900
C1588       C  0.36210136  0.30439933  0.13573308    -0.26100
C1589       C  0.34870558  0.31197588  0.11449730    -0.15300
C1590       C  0.32285839  0.30722175  0.11326346     0.37000
N1591       N  0.30852277  0.31531329  0.09219511    -0.89600
H1592       H  0.29101094  0.29139836  0.13182336     0.18100
H1593       H  0.38196289  0.30820669  0.13681136     0.18100
N1594       N  0.36429486  0.28439390  0.17716159    -0.88600
H1595       H  0.29449030  0.32732087  0.09865842     0.35500
H1596       H  0.29993935  0.29964729  0.08429557     0.40600
H1597       H  0.35759497  0.29460900  0.19246651     0.40200
H1598       H  0.38314409  0.28912366  0.17505696     0.35100
C1599       C  0.33225458  0.28621779  0.88786380    -0.26600
C1600       C  0.33417490  0.31225273  0.88600732    -0.14700
C1601       C  0.32288773  0.32466551  0.86565652     0.35900
C1602       C  0.31059732  0.31068253  0.84711995    -0.26100
C1603       C  0.30974866  0.28456829  0.84832099    -0.15300
C1604       C  0.32039000  0.27225790  0.86915560     0.37000
N1605       N  0.31900753  0.24568851  0.87202704    -0.89600
H1606       H  0.34072713  0.27660488  0.90351952     0.18100
H1607       H  0.30205871  0.32014240  0.83141018     0.18100
N1608       N  0.32393204  0.35144011  0.86395289    -0.88600
H1609       H  0.32842772  0.23721747  0.85711116     0.35500
H1610       H  0.30021738  0.24036368  0.87146152     0.40600
H1611       H  0.31402023  0.35874061  0.87918857     0.40200
H1612       H  0.31483095  0.35765204  0.84784342     0.35100
C1613       C  0.35528204  0.31401488  0.98612734    -0.26600
C1614       C  0.35495478  0.33678815  0.97314911    -0.14700
C1615       C  0.35464170  0.35932661  0.98680163     0.35900
C1616       C  0.35700324  0.35891489  0.01279911    -0.26100
C1617       C  0.35937888  0.33633617  0.02577167    -0.15300
C1618       C  0.35737335  0.31355030  0.01248754     0.37000
N1619       N  0.35922547  0.29017138  0.02549277    -0.89600
H1620       H  0.35547541  0.29667680  0.97564552     0.18100
H1621       H  0.35784857  0.37650171  0.02285143     0.18100
N1622       N  0.35256565  0.38282281  0.97417383    -0.88600
H1623       H  0.35870141  0.27527427  0.01283074     0.35500
H1624       H  0.34329248  0.28843433  0.03672097     0.40600
H1625       H  0.36830515  0.39353064  0.97854382     0.40200
H1626       H  0.33680851  0.39208779  0.98116598     0.35100
C1627       C  0.13768314  0.27892401  0.31309827    -0.26600
C1628       C  0.15858299  0.29345760  0.30659086    -0.14700
C1629       C  0.15916635  0.31886394  0.31364409     0.35900
C1630       C  0.13900986  0.32898530  0.32733796    -0.26100
C1631       C  0.11815118  0.31436557  0.33392266    -0.15300
C1632       C  0.11754136  0.28902807  0.32642106     0.37000
N1633       N  0.09724893  0.27276753  0.33279180    -0.89600
H1634       H  0.13687996  0.25942949  0.30764898     0.18100
H1635       H  0.13967593  0.34838913  0.33310186     0.18100
N1636       N  0.18038483  0.33412636  0.30743308    -0.88600
H1637       H  0.08099226  0.27927407  0.32420854     0.35500
H1638       H  0.09482240  0.27297254  0.35220306     0.40600
H1639       H  0.19580772  0.32698954  0.31703189     0.40200
H1640       H  0.17778054  0.35239905  0.31386984     0.35100
C1641       C  0.88569870  0.29036786  0.33846152    -0.26600
C1642       C  0.88870626  0.31586177  0.33349246    -0.14700
C1643       C  0.87157229  0.32807392  0.31761128     0.35900
C1644       C  0.85159619  0.31471114  0.30740324    -0.26100
C1645       C  0.84802440  0.28935267  0.31299297    -0.15300
C1646       C  0.86554472  0.27692169  0.32834155     0.37000
N1647       N  0.86311836  0.25063380  0.33319542    -0.89600
H1648       H  0.89887086  0.28104249  0.35065456     0.18100
H1649       H  0.83864214  0.32428223  0.29516372     0.18100
N1650       N  0.87435142  0.35386341  0.31107349    -0.88600
H1651       H  0.87738357  0.24445999  0.34499457     0.35500
H1652       H  0.86552279  0.24122002  0.31620175     0.40600
H1653       H  0.89212211  0.35636630  0.30328025     0.40200
H1654       H  0.87299347  0.36468945  0.32728315     0.35100
C1655       C  0.99021832  0.32752332  0.33747550    -0.26600
C1656       C  0.97664479  0.32645541  0.35998341    -0.14700
C1657       C  0.98953832  0.32178913  0.38253601     0.35900
C1658       C  0.01557313  0.32057148  0.38247324    -0.26100
C1659       C  0.02939404  0.32409651  0.36041797    -0.15300
C1660       C  0.01648438  0.32649710  0.33747367     0.37000
N1661       N  0.02946283  0.32960621  0.31422657    -0.89600
H1662       H  0.98050733  0.33092807  0.32005293     0.18100
H1663       H  0.02517396  0.31814977  0.40013597     0.18100
N1664       N  0.97672873  0.31845932  0.40588379    -0.88600
H1665       H  0.04057948  0.31383258  0.31114890     0.35500
H1666       H  0.04103530  0.34527308  0.31559394     0.40600
H1667       H  0.96335908  0.30439974  0.40366754     0.40200
H1668       H  0.96773104  0.33503305  0.41086335     0.35100
C1669       C  0.33044617  0.11413258  0.35386307    -0.26600
C1670       C  0.33733129  0.09257043  0.34044906    -0.14700
C1671       C  0.33252200  0.09135846  0.31455289     0.35900
C1672       C  0.32076867  0.11164784  0.30270894    -0.26100
C1673       C  0.31344596  0.13300736  0.31623968    -0.15300
C1674       C  0.31839068  0.13417677  0.34206893     0.37000
N1675       N  0.31161775  0.15584336  0.35632032    -0.89600
H1676       H  0.33422395  0.11535458  0.37373459     0.18100
H1677       H  0.31692266  0.11059200  0.28284791     0.18100
N1678       N  0.33989403  0.06975684  0.30031537    -0.88600
H1679       H  0.32783526  0.16308629  0.36443050     0.35500
H1680       H  0.29964675  0.15021215  0.37073845     0.40600
H1681       H  0.35940754  0.06874645  0.30070413     0.40200
H1682       H  0.33485449  0.07178083  0.28154975     0.35100
C1683       C  0.34095117  0.82321078  0.30858180    -0.26600
C1684       C  0.31476603  0.82289441  0.30667664    -0.14700
C1685       C  0.30092169  0.84304418  0.31712349     0.35900
C1686       C  0.31352334  0.86246379  0.32962063    -0.26100
C1687       C  0.33957672  0.86227936  0.33207034    -0.15300
C1688       C  0.35337182  0.84254041  0.32128068     0.37000
N1689       N  0.38009083  0.84221917  0.32290756    -0.89600
H1690       H  0.35189530  0.80820302  0.30044501     0.18100
H1691       H  0.30288372  0.87757012  0.33798254     0.18100
N1692       N  0.27415259  0.84394124  0.31486600    -0.88600
H1693       H  0.38734915  0.84190806  0.30472831     0.35500
H1694       H  0.38542196  0.82568381  0.33179327     0.40600
H1695       H  0.26997576  0.84619318  0.29591293     0.40200
H1696       H  0.26688088  0.85958980  0.32409194     0.35100
C1697       C  0.35076743  0.96302783  0.33847271    -0.26600
C1698       C  0.34810176  0.95006752  0.36116778    -0.14700
C1699       C  0.34365445  0.96362915  0.38337969     0.35900
C1700       C  0.34443479  0.98979615  0.38292074    -0.26100
C1701       C  0.34942505  0.00280189  0.36072560    -0.15300
C1702       C  0.35169504  0.98941364  0.33805796     0.37000
N1703       N  0.35651244  0.00246975  0.31508466    -0.89600
H1704       H  0.35413987  0.95258131  0.32141517     0.18100
H1705       H  0.34236169  0.00013284  0.40026165     0.18100
N1706       N  0.33938813  0.95067343  0.40653734    -0.88600
H1707       H  0.35776211  0.98987331  0.30016119     0.35500
H1708       H  0.37402772  0.01098589  0.31660744     0.40600
H1709       H  0.32268450  0.94071380  0.40471722     0.40200
H1710       H  0.33672049  0.96335423  0.42120882     0.35100
C1711       C  0.31757975  0.66784010  0.13403138    -0.26600
C1712       C  0.30520165  0.65547902  0.15368995    -0.14700
C1713       C  0.30447047  0.62897938  0.15362300     0.35900
C1714       C  0.31590586  0.61571072  0.13398124    -0.26100
C1715       C  0.32781351  0.62816523  0.11428409    -0.15300
C1716       C  0.32872865  0.65448784  0.11437517     0.37000
N1717       N  0.34141722  0.66808247  0.09510171    -0.89600
H1718       H  0.31827137  0.68806054  0.13367019     0.18100
H1719       H  0.31551624  0.59546731  0.13399203     0.18100
N1720       N  0.29231173  0.61555077  0.17350653    -0.88600
H1721       H  0.33290525  0.66406963  0.07799701     0.35500
H1722       H  0.35996712  0.66195780  0.09433637     0.40600
H1723       H  0.30243237  0.61882806  0.18988174     0.40200
H1724       H  0.29299187  0.59629748  0.17026542     0.35100
C1725       C  0.34734301  0.65291347  0.86891787    -0.26600
C1726       C  0.33261167  0.64219419  0.88784969    -0.14700
C1727       C  0.30654855  0.64616415  0.88782420     0.35900
C1728       C  0.29577493  0.66037944  0.86858203    -0.26100
C1729       C  0.31045507  0.67075850  0.84934984    -0.15300
C1730       C  0.33657563  0.66721853  0.84982799     0.37000
N1731       N  0.35221504  0.67746534  0.83062832    -0.89600
H1732       H  0.36739045  0.64995479  0.86878104     0.18100
H1733       H  0.27572257  0.66323060  0.86854855     0.18100
N1734       N  0.29101173  0.63513564  0.90680968    -0.88600
H1735       H  0.36180571  0.66276304  0.82197903     0.35500
H1736       H  0.36539354  0.68910527  0.83912647     0.40600
H1737       H  0.29199450  0.61574726  0.90464628     0.40200
H1738       H  0.27229218  0.64007718  0.90419562     0.35100
C1739       C  0.33877726  0.58390773  0.98459068    -0.26600
C1740       C  0.34130549  0.60750690  0.97348965    -0.14700
C1741       C  0.34093828  0.62903008  0.98888877     0.35900
C1742       C  0.33969547  0.62637691  0.01497247    -0.26100
C1743       C  0.33930112  0.60262377  0.02601938    -0.15300
C1744       C  0.33775951  0.58122717  0.01066301     0.37000
N1745       N  0.33611060  0.55679673  0.02168134    -0.89600
H1746       H  0.33872179  0.56737299  0.97285655     0.18100
H1747       H  0.34098638  0.64287872  0.02667015     0.18100
N1748       N  0.34371328  0.65361276  0.97876577    -0.88600
H1749       H  0.33543636  0.54300823  0.00782090     0.35500
H1750       H  0.31916462  0.55586121  0.03143129     0.40600
H1751       H  0.32877003  0.65704129  0.96671300     0.40200
H1752       H  0.36037567  0.65430890  0.96851948     0.35100
C1753       C  0.69385114  0.31945848  0.15214349    -0.26600
C1754       C  0.69383977  0.29320185  0.15181958    -0.14700
C1755       C  0.68183233  0.28060316  0.13184733     0.35900
C1756       C  0.67006430  0.29459083  0.11295882    -0.26100
C1757       C  0.66994080  0.32077352  0.11363824    -0.15300
C1758       C  0.68203080  0.33324356  0.13338087     0.37000
N1759       N  0.68278384  0.35998430  0.13420270    -0.89600
H1760       H  0.70308961  0.32949458  0.16711110     0.18100
H1761       H  0.66062067  0.28501136  0.09782476     0.18100
N1762       N  0.68180991  0.25377631  0.13056278    -0.88600
H1763       H  0.70151769  0.36554211  0.13425757     0.35500
H1764       H  0.67464306  0.36582188  0.15103370     0.40600
H1765       H  0.70025260  0.24799184  0.12759106     0.40200
H1766       H  0.67158522  0.24757699  0.11511697     0.35100
C1767       C  0.64733371  0.30863253  0.86452543    -0.26600
C1768       C  0.66132564  0.31715265  0.88498869    -0.14700
C1769       C  0.68698307  0.31138098  0.88641115     0.35900
C1770       C  0.69802960  0.29694579  0.86739394    -0.26100
C1771       C  0.68395663  0.28807745  0.84703626    -0.15300
C1772       C  0.65822443  0.29405784  0.84573400     0.37000
N1773       N  0.64276210  0.28623112  0.82534520    -0.89600
H1774       H  0.62760164  0.31305384  0.86327654     0.18100
H1775       H  0.71775134  0.29247947  0.86856464     0.18100
N1776       N  0.70179781  0.32056488  0.90684784    -0.88600
H1777       H  0.64156995  0.26675886  0.82535604     0.35500
H1778       H  0.65091456  0.29220757  0.80859703     0.40600
H1779       H  0.70210744  0.34005305  0.90566028     0.40200
H1780       H  0.72032972  0.31457364  0.90511004     0.35100
C1781       C  0.61940634  0.33252194  0.98717237    -0.26600
C1782       C  0.64180046  0.33439438  0.97363136    -0.14700
C1783       C  0.66482596  0.33340249  0.98646321     0.35900
C1784       C  0.66476157  0.33286073  0.01287603    -0.26100
C1785       C  0.64214792  0.33327323  0.02629042    -0.15300
C1786       C  0.61939793  0.33196812  0.01325656     0.37000
N1787       N  0.59612505  0.33095991  0.02656344    -0.89600
H1788       H  0.60164757  0.33263438  0.97745602     0.18100
H1789       H  0.68226284  0.33391005  0.02296640     0.18100
N1790       N  0.68798269  0.33486980  0.97286005    -0.88600
H1791       H  0.58667403  0.31481250  0.02096294     0.35500
H1792       H  0.58538306  0.34638500  0.02127824     0.40600
H1793       H  0.68975202  0.31843815  0.96241542     0.40200
H1794       H  0.70310218  0.33516281  0.98520239     0.35100
C1795       C  0.34592309  0.10465552  0.67992303    -0.26600
C1796       C  0.33345417  0.08975910  0.66236485    -0.14700
C1797       C  0.30831401  0.09501471  0.65645819     0.35900
C1798       C  0.29626460  0.11515713  0.66798912    -0.26100
C1799       C  0.30860960  0.13002396  0.68579002    -0.15300
C1800       C  0.33362653  0.12447866  0.69196749     0.37000
N1801       N  0.34676068  0.13914704  0.71009728    -0.89600
H1802       H  0.36530884  0.10083342  0.68435269     0.18100
H1803       H  0.27694157  0.11893560  0.66326082     0.18100
N1804       N  0.29480582  0.08066116  0.63834677    -0.88600
H1805       H  0.36259910  0.14669973  0.70146821     0.35500
H1806       H  0.35274043  0.12724356  0.72436036     0.40600
H1807       H  0.29386320  0.06217392  0.64449213     0.40200
H1808       H  0.30462702  0.08112810  0.62141590     0.35100
C1809       C  0.34505159  0.84244627  0.67229713    -0.26600
C1810       C  0.33182317  0.86076822  0.65905326    -0.14700
C1811       C  0.30560775  0.85928821  0.65759475     0.35900
C1812       C  0.29301377  0.83968499  0.66960412    -0.26100
C1813       C  0.30620702  0.82172384  0.68340741    -0.15300
C1814       C  0.33243155  0.82310418  0.68467540     0.37000
N1815       N  0.34631461  0.80456310  0.69800866    -0.89600
H1816       H  0.36527123  0.84327168  0.67321687     0.18100
H1817       H  0.27280803  0.83873227  0.66847107     0.18100
N1818       N  0.29181221  0.87723546  0.64337616    -0.88600
H1819       H  0.35690134  0.81362217  0.71169045     0.35500
H1820       H  0.35867076  0.79601552  0.68544596     0.40600
H1821       H  0.27885832  0.88578901  0.65531473     0.40200
H1822       H  0.28190003  0.86767216  0.62952358     0.35100
C1823       C  0.34198676  0.96239273  0.61443712    -0.26600
C1824       C  0.34518415  0.94940387  0.63692074    -0.14700
C1825       C  0.34616422  0.96288188  0.65965849     0.35900
C1826       C  0.34610745  0.98909624  0.65917913    -0.26100
C1827       C  0.34537012  0.00199999  0.63635880    -0.15300
C1828       C  0.34200362  0.98844296  0.61391712     0.37000
N1829       N  0.33892872  0.00063473  0.59028006    -0.89600
H1830       H  0.34080990  0.95218853  0.59694332     0.18100
H1831       H  0.34857521  0.99934187  0.67649990     0.18100
N1832       N  0.34903088  0.95051873  0.68320238    -0.88600
H1833       H  0.35514932  0.01055406  0.58591072     0.35500
H1834       H  0.32402779  0.01319778  0.59179394     0.40600
H1835       H  0.36528874  0.93969100  0.68253823     0.40200
H1836       H  0.33374799  0.93864324  0.68580280     0.35100
C1837       C  0.15249257  0.31282184  0.68648791    -0.26600
C1838       C  0.15103561  0.28685112  0.68963459    -0.14700
C1839       C  0.12994569  0.27389733  0.68006161     0.35900
C1840       C  0.11086343  0.28719545  0.66818430    -0.26100
C1841       C  0.11257060  0.31305833  0.66493324    -0.15300
C1842       C  0.13359407  0.32603721  0.67411274     0.37000
N1843       N  0.13551013  0.35265689  0.67109600    -0.89600
H1844       H  0.16847959  0.32289633  0.69373316     0.18100
H1845       H  0.09485179  0.27716533  0.66090788     0.18100
N1846       N  0.12701373  0.24741378  0.68248579    -0.88600
H1847       H  0.15219235  0.35931736  0.67874639     0.35500
H1848       H  0.12097906  0.36084413  0.68135248     0.40600
H1849       H  0.12800010  0.24267883  0.70141707     0.40200
H1850       H  0.14141457  0.23850885  0.67267529     0.35100
C1851       C  0.84309170  0.29415668  0.66710079    -0.26600
C1852       C  0.84412774  0.29419087  0.69325694    -0.14700
C1853       C  0.86494328  0.30495905  0.70543862     0.35900
C1854       C  0.88429502  0.31530328  0.69121589    -0.26100
C1855       C  0.88303785  0.31573234  0.66503582    -0.15300
C1856       C  0.86220356  0.30508785  0.65281912     0.37000
N1857       N  0.86065042  0.30521939  0.62597489    -0.89600
H1858       H  0.82723926  0.28565709  0.65781536     0.18100
H1859       H  0.90010838  0.32364140  0.70070859     0.18100
N1860       N  0.86722276  0.30510830  0.73213901    -0.88600
H1861       H  0.84404033  0.29686509  0.62000606     0.35500
H1862       H  0.87526842  0.29418588  0.61908699     0.40600
H1863       H  0.86599663  0.28672575  0.73858414     0.40200
H1864       H  0.85244389  0.31544170  0.73971395     0.35100
C1865       C  0.98379719  0.31584340  0.65147915    -0.26600
C1866       C  0.97158944  0.33909686  0.65073837    -0.14700
C1867       C  0.98596676  0.36118541  0.65250318     0.35900
C1868       C  0.01194605  0.35971170  0.65247098    -0.26100
C1869       C  0.02426747  0.33669074  0.65058327    -0.15300
C1870       C  0.01018516  0.31441472  0.65142913     0.37000
N1871       N  0.02257847  0.29062356  0.65037415    -0.89600
H1872       H  0.97282431  0.29887346  0.65041494     0.18100
H1873       H  0.02265909  0.37689863  0.65254915     0.18100
N1874       N  0.97476208  0.38547965  0.65403001    -0.88600
H1875       H  0.00947249  0.27614626  0.65014611     0.35500
H1876       H  0.03269858  0.28860576  0.66694262     0.40600
H1877       H  0.96162626  0.38547431  0.66855351     0.40200
H1878       H  0.96581950  0.38961056  0.63722179     0.35100
C1879       C  0.68772145  0.09382131  0.33295513    -0.26600
C1880       C  0.66156635  0.09345285  0.33422306    -0.14700
C1881       C  0.64793479  0.11321056  0.32338446     0.35900
C1882       C  0.66058488  0.13269133  0.31118545    -0.26100
C1883       C  0.68681275  0.13323967  0.31001856    -0.15300
C1884       C  0.70044204  0.11359909  0.32129708     0.37000
N1885       N  0.72721358  0.11334553  0.32063733    -0.89600
H1886       H  0.69841535  0.07897114  0.34157867     0.18100
H1887       H  0.64977566  0.14751283  0.30266432     0.18100
N1888       N  0.62117102  0.11335874  0.32436088    -0.88600
H1889       H  0.73299752  0.09690868  0.31175110     0.35500
H1890       H  0.73369651  0.11292113  0.33906191     0.40600
H1891       H  0.61445918  0.11383862  0.30602381     0.40200
H1892       H  0.61547212  0.12975718  0.33337731     0.35100
C1893       C  0.65517562  0.84301307  0.33193515    -0.11400
C1894       C  0.66801832  0.86413715  0.34085795    -0.14700
C1895       C  0.69436598  0.86497270  0.33900125     0.35900
C1896       C  0.70716692  0.84468257  0.32825191    -0.26100
C1897       C  0.69418171  0.82399884  0.31883364    -0.15300
C1898       C  0.66799718  0.82296810  0.32084955     0.37000
N1899       N  0.65463118  0.80145401  0.31190944    -0.89600
H1900       H  0.63500186  0.84214562  0.33361622     0.18100
H1901       H  0.72735258  0.84530710  0.32652463     0.18100
N1902       N  0.70811752  0.88592549  0.34864191    -0.88600
H1903       H  0.63541639  0.80362877  0.31484629     0.35500
H1904       H  0.66019349  0.78616112  0.32268688     0.40600
H1905       H  0.70476401  0.90105886  0.33679981     0.40200
H1906       H  0.72734523  0.88252908  0.34764421     0.35100
C1907       C  0.65580786  0.96453050  0.34172321    -0.26600
C1908       C  0.65341619  0.95246423  0.36493780    -0.14700
C1909       C  0.65376569  0.96678867  0.38699794     0.35900
C1910       C  0.65405811  0.99283446  0.38555937    -0.26100
C1911       C  0.65369445  0.00512910  0.36239775    -0.15300
C1912       C  0.65582977  0.99089644  0.34020005     0.37000
N1913       N  0.65594607  0.00306559  0.31627907    -0.89600
H1914       H  0.65579249  0.95346244  0.32473501     0.18100
H1915       H  0.65297860  0.00355180  0.40275886     0.18100
N1916       N  0.65296843  0.95490132  0.41097685    -0.88600
H1917       H  0.65645928  0.98985183  0.30185819     0.35500
H1918       H  0.67256817  0.01323638  0.31494751     0.40600
H1919       H  0.63707866  0.96126620  0.42048824     0.40200
H1920       H  0.66869090  0.96056915  0.42106733     0.35100
C1921       C  0.11396490  0.64411596  0.31473615    -0.26600
C1922       C  0.11583342  0.63958473  0.34044950    -0.14700
C1923       C  0.13684560  0.64858104  0.35359911     0.35900
C1924       C  0.15532550  0.66222868  0.34092898    -0.26100
C1925       C  0.15362532  0.66651133  0.31511114    -0.15300
C1926       C  0.13274152  0.65715321  0.30192206     0.37000
N1927       N  0.13026137  0.66112747  0.27554996    -0.89600
H1928       H  0.09810643  0.63701363  0.30435925     0.18100
H1929       H  0.17122633  0.66922388  0.35131147     0.18100
N1930       N  0.13935712  0.64418958  0.37989477    -0.88600
H1931       H  0.11351404  0.67067489  0.27241371     0.35500
H1932       H  0.12905532  0.64368554  0.26680599     0.40600
H1933       H  0.14069255  0.66147760  0.38891630     0.40200
H1934       H  0.15607996  0.63451511  0.38279521     0.35100
C1935       C  0.88701734  0.66096705  0.33160415    -0.26600
C1936       C  0.88789203  0.63492739  0.32929429    -0.14700
C1937       C  0.86960577  0.62256650  0.31472026     0.35900
C1938       C  0.85066877  0.63657865  0.30333287    -0.26100
C1939       C  0.84937559  0.66269715  0.30591175    -0.15300
C1940       C  0.86795572  0.67493819  0.32022761     0.37000
N1941       N  0.86771339  0.70152414  0.32329076    -0.89600
H1942       H  0.90084517  0.67049765  0.34291622     0.18100
H1943       H  0.83680160  0.62677974  0.29232207     0.18100
N1944       N  0.86962092  0.59593924  0.31091602    -0.88600
H1945       H  0.88465664  0.70856850  0.31652975     0.35500
H1946       H  0.86665879  0.70549453  0.34242548     0.40600
H1947       H  0.88506277  0.58741646  0.31915278     0.40200
H1948       H  0.87144142  0.59269593  0.29170355     0.35100
C1949       C  0.98768490  0.63312232  0.34803761    -0.26600
C1950       C  0.97500503  0.61014790  0.34889300    -0.14700
C1951       C  0.98905986  0.58776535  0.34789269     0.35900
C1952       C  0.01508329  0.58875364  0.34826867    -0.26100
C1953       C  0.02783622  0.61155621  0.34985736    -0.15300
C1954       C  0.01409831  0.63407781  0.34853055     0.37000
N1955       N  0.02679218  0.65769971  0.34944818    -0.89600
H1956       H  0.97699111  0.65030959  0.34850991     0.18100
H1957       H  0.02546229  0.57135533  0.34856792     0.18100
N1958       N  0.97748763  0.56365162  0.34666071    -0.88600
H1959       H  0.01388580  0.67237260  0.34951713     0.35500
H1960       H  0.03708197  0.65944926  0.33288937     0.40600
H1961       H  0.96483630  0.56353058  0.33179858     0.40200
H1962       H  0.96791879  0.56015194  0.36332555     0.35100
C1963       C  0.67409971  0.63690507  0.13151660    -0.26600
C1964       C  0.66096336  0.65068648  0.11350262    -0.14700
C1965       C  0.66015706  0.67696789  0.11534900     0.35900
C1966       C  0.67219192  0.68883809  0.13547255    -0.26100
C1967       C  0.68553455  0.67504364  0.15332246    -0.15300
C1968       C  0.68663058  0.64882456  0.15127121     0.37000
N1969       N  0.70003208  0.63440774  0.16950414    -0.89600
H1970       H  0.67451246  0.61670838  0.13017317     0.18100
H1971       H  0.67152041  0.70901449  0.13702833     0.18100
N1972       N  0.64633152  0.69142163  0.09746321    -0.88600
H1973       H  0.69903932  0.61536185  0.16526825     0.35500
H1974       H  0.69103921  0.63682494  0.18673330     0.40600
H1975       H  0.65584459  0.69032385  0.08039309     0.40200
H1976       H  0.64630653  0.71030525  0.10248803     0.35100
C1977       C  0.64364107  0.64742303  0.86162595    -0.26600
C1978       C  0.65596697  0.64296460  0.88436944    -0.14700
C1979       C  0.68142342  0.64942739  0.88676655     0.35900
C1980       C  0.69395356  0.66000544  0.86621871    -0.26100
C1981       C  0.68140697  0.66480817  0.84367997    -0.15300
C1982       C  0.65604001  0.65829981  0.84129762     0.37000
N1983       N  0.64303734  0.66252272  0.81818441    -0.89600
H1984       H  0.62410544  0.64246611  0.85969260     0.18100
H1985       H  0.71343477  0.66522041  0.86804962     0.18100
N1986       N  0.69463780  0.64469916  0.90965014    -0.88600
H1987       H  0.62439955  0.65681896  0.81961682     0.35500
H1988       H  0.65135786  0.65120426  0.80454067     0.40600
H1989       H  0.68785988  0.65721718  0.92307936     0.40200
H1990       H  0.71363305  0.64880564  0.90752805     0.35100
C1991       C  0.65497753  0.63357434  0.98510470    -0.26600
C1992       C  0.63160705  0.63368006  0.97319537    -0.14700
C1993       C  0.60980754  0.63805821  0.98743227     0.35900
C1994       C  0.61145770  0.63936005  0.01354038    -0.26100
C1995       C  0.63448406  0.63681947  0.02569109    -0.15300
C1996       C  0.65660233  0.63502506  0.01127932     0.37000
N1997       N  0.68065737  0.63289112  0.02275243    -0.89600
H1998       H  0.67184467  0.63060129  0.97421540     0.18100
H1999       H  0.59451360  0.64107791  0.02458998     0.18100
N2000       N  0.58597469  0.64039178  0.97530949    -0.88600
H2001       H  0.68057987  0.61728705  0.03447671     0.35500
H2002       H  0.68363422  0.64881805  0.03367922     0.40600
H2003       H  0.58665750  0.65633117  0.96406461     0.40200
H2004       H  0.57176938  0.64338695  0.98845606     0.35100
C2005       C  0.13305619  0.67285120  0.68342838    -0.26600
C2006       C  0.15419203  0.65942501  0.69123024    -0.14700
C2007       C  0.15575607  0.63359306  0.68618807     0.35900
C2008       C  0.13615415  0.62182347  0.67331816    -0.26100
C2009       C  0.11496195  0.63527796  0.66567045    -0.15300
C2010       C  0.11342720  0.66101044  0.67087872     0.37000
N2011       N  0.09233007  0.67536765  0.66286101    -0.89600
H2012       H  0.13156737  0.69266225  0.68738074     0.18100
H2013       H  0.13742495  0.60203421  0.66920513     0.18100
N2014       N  0.17731372  0.61951382  0.69379765    -0.88600
H2015       H  0.09878196  0.68959644  0.65113836     0.35500
H2016       H  0.08422577  0.68367472  0.67863768     0.40600
H2017       H  0.19269276  0.62635108  0.68383042     0.40200
H2018       H  0.17539552  0.60072291  0.68880368     0.35100
C2019       C  0.89065102  0.65516045  0.67949976    -0.26600
C2020       C  0.88620610  0.63191156  0.66815824    -0.14700
C2021       C  0.86257170  0.62034949  0.67132183     0.35900
C2022       C  0.84363485  0.63293453  0.68449865    -0.26100
C2023       C  0.84780012  0.65665904  0.69462793    -0.15300
C2024       C  0.87169719  0.66761308  0.69279975     0.37000
N2025       N  0.87664249  0.69122919  0.70464274    -0.89600
H2026       H  0.90877352  0.66396453  0.67750805     0.18100
H2027       H  0.82538660  0.62438224  0.68654851     0.18100
N2028       N  0.85782024  0.59590640  0.66120890    -0.88600
H2029       H  0.89514301  0.69671554  0.70149517     0.35500
H2030       H  0.87476624  0.68869133  0.72394872     0.40600
H2031       H  0.83945353  0.59033090  0.66491623     0.40200
H2032       H  0.86946218  0.58331993  0.67052656     0.35100
C2033       C  0.98737374  0.63085386  0.61928857    -0.26600
C2034       C  0.97451119  0.62386579  0.64104717    -0.14700
C2035       C  0.98813527  0.61883540  0.66308613     0.35900
C2036       C  0.01435194  0.61903696  0.66231297    -0.26100
C2037       C  0.02709658  0.62382972  0.63984026    -0.15300
C2038       C  0.01340791  0.63087214  0.61844334     0.37000
N2039       N  0.02544228  0.63781727  0.59549980    -0.89600
H2040       H  0.97707106  0.63508131  0.60238237     0.18100
H2041       H  0.02474077  0.61367165  0.67882520     0.18100
N2042       N  0.97595448  0.61175313  0.68588352    -0.88600
H2043       H  0.03526536  0.62252022  0.58838062     0.35500
H2044       H  0.03808182  0.65221295  0.59928709     0.40600
H2045       H  0.96506334  0.59591298  0.68244906     0.40200
H2046       H  0.96418174  0.62633968  0.69144149     0.35100
C2047       C  0.68093005  0.11179833  0.70132969    -0.26600
C2048       C  0.68972352  0.13169068  0.68653513    -0.14700
C2049       C  0.68573582  0.13100457  0.66045351     0.35900
C2050       C  0.67352067  0.11031904  0.64978268    -0.26100
C2051       C  0.66517030  0.09026549  0.66454850    -0.15300
C2052       C  0.66880380  0.09117178  0.69058875     0.37000
N2053       N  0.65954882  0.07159425  0.70630404    -0.89600
H2054       H  0.68375720  0.11204449  0.72139460     0.18100
H2055       H  0.67041515  0.10987592  0.62976759     0.18100
N2056       N  0.69370652  0.15142421  0.64494433    -0.88600
H2057       H  0.64703570  0.07945365  0.71916443     0.35500
H2058       H  0.67461461  0.06423088  0.71628589     0.40600
H2059       H  0.68330883  0.16713785  0.65018934     0.40200
H2060       H  0.68950074  0.14790128  0.62618056     0.35100
C2061       C  0.67480000  0.83932424  0.64470312    -0.26600
C2062       C  0.66635815  0.85917938  0.65984268    -0.14700
C2063       C  0.67009093  0.85795754  0.68593752     0.35900
C2064       C  0.68176815  0.83684045  0.69622266    -0.26100
C2065       C  0.69030724  0.81704300  0.68108477    -0.15300
C2066       C  0.68685527  0.81845017  0.65504118     0.37000
N2067       N  0.69491576  0.79847692  0.63908438    -0.89600
H2068       H  0.67186636  0.83991830  0.62466379     0.18100
H2069       H  0.68459834  0.83607353  0.71626625     0.18100
N2070       N  0.66117378  0.87757488  0.70206594    -0.88600
H2071       H  0.70746006  0.80578038  0.62597197     0.35500
H2072       H  0.67933366  0.79175740  0.62942838     0.40600
H2073       H  0.67253515  0.89316446  0.69907552     0.40200
H2074       H  0.66352896  0.87272580  0.72084655     0.35100
C2075       C  0.66242131  0.96053606  0.65130204    -0.26600
C2076       C  0.63951878  0.94795074  0.65397888    -0.14700
C2077       C  0.61786320  0.96189626  0.66002999     0.35900
C2078       C  0.61899656  0.98795058  0.66073614    -0.26100
C2079       C  0.64129667  0.00070254  0.65554457    -0.15300
C2080       C  0.66351843  0.98690941  0.65193866     0.37000
N2081       N  0.68659245  0.99966367  0.64685428    -0.89600
H2082       H  0.67909681  0.94990684  0.64684255     0.18100
H2083       H  0.60190602  0.99841368  0.66386192     0.18100
N2084       N  0.59434105  0.95014374  0.66516684    -0.88600
H2085       H  0.70098150  0.98680402  0.64369255     0.35500
H2086       H  0.69141933  0.00959536  0.66298220     0.40600
H2087       H  0.59693301  0.93711455  0.67946531     0.40200
H2088       H  0.58817193  0.94083304  0.64917793     0.35100
C2089       C  0.94350319  0.90222141  0.41953304    -0.26600
C2090       C  0.94230119  0.91256218  0.39561459    -0.14700
C2091       C  0.92427140  0.90389504  0.37856650     0.35900
C2092       C  0.90772769  0.88494147  0.38577550    -0.26100
C2093       C  0.90871531  0.87440036  0.40989840    -0.15300
C2094       C  0.92699370  0.88335286  0.42689165     0.37000
N2095       N  0.92918656  0.87336325  0.45161787    -0.89600
H2096       H  0.95734760  0.90898227  0.43267393     0.18100
H2097       H  0.89398410  0.87853930  0.37238710     0.18100
N2098       N  0.92253872  0.91395950  0.35383697    -0.88600
H2099       H  0.92686490  0.88797870  0.46441962     0.35500
H2100       H  0.94725971  0.86623255  0.45369993     0.40600
H2101       H  0.93978391  0.91143654  0.34492210     0.40200
H2102       H  0.91911427  0.93313356  0.35526961     0.35100
C2103       C  0.08598534  0.91046307  0.37777005    -0.26600
C2104       C  0.06874121  0.91789232  0.39611182    -0.14700
C2105       C  0.07061118  0.90804229  0.42057631     0.35900
C2106       C  0.08958577  0.89091951  0.42596176    -0.26100
C2107       C  0.10685490  0.88320104  0.40763734    -0.15300
C2108       C  0.10498612  0.89323358  0.38326869     0.37000
N2109       N  0.12256013  0.88644641  0.36416052    -0.89600
H2110       H  0.08475731  0.91821348  0.35910192     0.18100
H2111       H  0.09056540  0.88339375  0.44473198     0.18100
N2112       N  0.05365180  0.91484132  0.44040353    -0.88600
H2113       H  0.13136953  0.90271052  0.35789713     0.35500
H2114       H  0.11264410  0.87878994  0.34917339     0.40600
H2115       H  0.04001243  0.92741398  0.43449629     0.40200
H2116       H  0.06402302  0.92400638  0.45418522     0.35100
C2117       C  0.92069278  0.07442057  0.42339465    -0.26600
C2118       C  0.90005304  0.07877676  0.40775869    -0.14700
C2119       C  0.89774883  0.06473066  0.38536286     0.35900
C2120       C  0.91629496  0.04709729  0.37907835    -0.26100
C2121       C  0.93675838  0.04302821  0.39482152    -0.15300
C2122       C  0.93887353  0.05668214  0.41716261     0.37000
N2123       N  0.95941253  0.05229236  0.43371759    -0.89600
H2124       H  0.92288251  0.08487850  0.44061913     0.18100
H2125       H  0.91467403  0.03622618  0.36204491     0.18100
N2126       N  0.87644493  0.06792420  0.36937766    -0.88600
H2127       H  0.96905249  0.06911142  0.43606071     0.35500
H2128       H  0.95217048  0.04699352  0.45109938     0.40600
H2129       H  0.86073121  0.06177648  0.37927582     0.40200
H2130       H  0.87791188  0.05649795  0.35355710     0.35100
C2131       C  0.08251891  0.05278595  0.37649295    -0.26600
C2132       C  0.06253646  0.04819564  0.39280231    -0.14700
C2133       C  0.05982757  0.06254106  0.41468670     0.35900
C2134       C  0.07732272  0.08113542  0.42014543    -0.26100
C2135       C  0.09766359  0.08562106  0.40409659    -0.15300
C2136       C  0.10013517  0.07137906  0.38194703     0.37000
N2137       N  0.12096244  0.07499797  0.36545613    -0.89600
H2138       H  0.08468588  0.04155825  0.35973550     0.18100
H2139       H  0.07508813  0.09193136  0.43717723     0.18100
N2140       N  0.03958121  0.05783535  0.43163744    -0.88600
H2141       H  0.11402479  0.07939081  0.34774223     0.35500
H2142       H  0.13070344  0.05811456  0.36406364     0.40600
H2143       H  0.04712459  0.05345430  0.44910329     0.40200
H2144       H  0.02921816  0.07429737  0.43352559     0.35100
C2145       C  0.93277345  0.89083942  0.62150089    -0.26600
C2146       C  0.93695015  0.90961579  0.60376830    -0.14700
C2147       C  0.92464458  0.90873616  0.58055995     0.35900
C2148       C  0.90839914  0.88889363  0.57543212    -0.26100
C2149       C  0.90447599  0.86968682  0.59288377    -0.15300
C2150       C  0.91674950  0.87070653  0.61624893     0.37000
N2151       N  0.91368733  0.85094714  0.63413834    -0.89600
H2152       H  0.94263491  0.89158208  0.63915774     0.18100
H2153       H  0.89896554  0.88828355  0.55753650     0.18100
N2154       N  0.92905376  0.92782701  0.56218024    -0.88600
H2155       H  0.92378011  0.85476301  0.65041736     0.35500
H2156       H  0.92154207  0.83480985  0.62635645     0.40600
H2157       H  0.94778779  0.92660810  0.55667479     0.40200
H2158       H  0.91837813  0.92455658  0.54615873     0.35100
C2159       C  0.91401162  0.03484426  0.58293450    -0.26600
C2160       C  0.93180788  0.03787056  0.60187997    -0.14700
C2161       C  0.93109282  0.05937433  0.61708584     0.35900
C2162       C  0.91324202  0.07800464  0.61249417    -0.26100
C2163       C  0.89619770  0.07546890  0.59277500    -0.15300
C2164       C  0.89612771  0.05337385  0.57840939     0.37000
N2165       N  0.87783327  0.04970299  0.55924470    -0.89600
H2166       H  0.91433964  0.01825056  0.57129219     0.18100
H2167       H  0.91341602  0.09491731  0.62366077     0.18100
N2168       N  0.94887177  0.06251045  0.63681298    -0.88600
H2169       H  0.86783771  0.03345762  0.56343093     0.35500
H2170       H  0.88721959  0.04685532  0.54229601     0.40600
H2171       H  0.93902331  0.06475203  0.65358513     0.40200
H2172       H  0.95887532  0.07893473  0.63342818     0.35100
C2173       C  0.07857928  0.91646023  0.58186520    -0.26600
C2174       C  0.06728299  0.91524613  0.60544366    -0.14700
C2175       C  0.07469221  0.89654651  0.62251300     0.35900
C2176       C  0.09292543  0.87914135  0.61518359    -0.26100
C2177       C  0.10392045  0.87991319  0.59122493    -0.15300
C2178       C  0.09672622  0.89914221  0.57457703     0.37000
N2179       N  0.10766579  0.90133233  0.55018827    -0.89600
H2180       H  0.07288858  0.93080791  0.56877089     0.18100
H2181       H  0.09813926  0.86462947  0.62826108     0.18100
N2182       N  0.06393621  0.89438729  0.64710169    -0.88600
H2183       H  0.11590588  0.91897620  0.54874205     0.35500
H2184       H  0.09336503  0.90019703  0.53694746     0.40600
H2185       H  0.05077554  0.90837915  0.65054044     0.40200
H2186       H  0.07829290  0.89710103  0.66004437     0.35100
C2187       C  0.07305663  0.04110728  0.57424447    -0.26600
C2188       C  0.06187386  0.04160671  0.59793558    -0.14700
C2189       C  0.06948972  0.05958254  0.61570512     0.35900
C2190       C  0.08845236  0.07643453  0.60933856    -0.26100
C2191       C  0.09979632  0.07607619  0.58556640    -0.15300
C2192       C  0.09198732  0.05803808  0.56781813     0.37000
N2193       N  0.10346766  0.05662794  0.54349567    -0.89600
H2194       H  0.06711707  0.02715073  0.56080645     0.18100
H2195       H  0.09404340  0.09015307  0.62309982     0.18100
N2196       N  0.05870523  0.06114991  0.64034087    -0.88600
H2197       H  0.09511561  0.04270275  0.53263063     0.35500
H2198       H  0.12207532  0.05124342  0.54602596     0.40600
H2199       H  0.04495976  0.04761822  0.64314953     0.40200
H2200       H  0.04979927  0.07847822  0.64184077     0.35100
C2201       C  0.41677353  0.91844049  0.92211516    -0.26600
C2202       C  0.39376229  0.91656881  0.93445053    -0.14700
C2203       C  0.37689566  0.89757770  0.92756445     0.35900
C2204       C  0.38368344  0.88030271  0.90903820    -0.26100
C2205       C  0.40706887  0.88166740  0.89693701    -0.15300
C2206       C  0.42349529  0.90143338  0.90332266     0.37000
N2207       N  0.44683105  0.90474184  0.89053569    -0.89600
H2208       H  0.42959832  0.93329785  0.92709586     0.18100
H2209       H  0.37061345  0.86560998  0.90428139     0.18100
N2210       N  0.35269839  0.89564821  0.93893090    -0.88600
H2211       H  0.46117279  0.90415572  0.90376148     0.35500
H2212       H  0.44686059  0.92246817  0.88236386     0.40600
H2213       H  0.34322114  0.91248420  0.93608147     0.40200
H2214       H  0.35499794  0.89315008  0.95816707     0.35100
C2215       C  0.37771206  0.89320126  0.06937270    -0.26600
C2216       C  0.39228045  0.91459185  0.06568213    -0.14700
C2217       C  0.41335894  0.91879673  0.08087750     0.35900
C2218       C  0.41955419  0.90137926  0.09943099    -0.26100
C2219       C  0.40519699  0.87971423  0.10313265    -0.15300
C2220       C  0.38393417  0.87562544  0.08787608     0.37000
N2221       N  0.36897046  0.85352575  0.09081603    -0.89600
H2222       H  0.36155475  0.89015556  0.05758510     0.18100
H2223       H  0.43570344  0.90482358  0.11111284     0.18100
N2224       N  0.42830583  0.94084742  0.07741872    -0.88600
H2225       H  0.38002719  0.83823586  0.08567793     0.35500
H2226       H  0.35380477  0.85373691  0.07853226     0.40600
H2227       H  0.43649312  0.93975427  0.05966989     0.40200
H2228       H  0.44294524  0.94136316  0.09031383     0.35100
C2229       C  0.37270248  0.06273477  0.93189951    -0.26600
C2230       C  0.38993629  0.04387735  0.93755301    -0.14700
C2231       C  0.41358781  0.04397978  0.92611914     0.35900
C2232       C  0.41973862  0.06281473  0.90914199    -0.26100
C2233       C  0.40265927  0.08186605  0.90322549    -0.15300
C2234       C  0.37870140  0.08165270  0.91480501     0.37000
N2235       N  0.36037640  0.10062549  0.91031181    -0.89600
H2236       H  0.35457196  0.06283244  0.94100054     0.18100
H2237       H  0.43810770  0.06242179  0.90055087     0.18100
N2238       N  0.43159211  0.02512771  0.93212386    -0.88600
H2239       H  0.35496635  0.09983752  0.89157240     0.35500
H2240       H  0.36829916  0.11806414  0.91411380     0.40600
H2241       H  0.44751969  0.03396238  0.93915914     0.40200
H2242       H  0.43658393  0.01593793  0.91557230     0.35100
C2243       C  0.41590706  0.03810089  0.07440665    -0.26600
C2244       C  0.39059855  0.03840039  0.06802842    -0.14700
C2245       C  0.37407511  0.05430884  0.08073034     0.35900
C2246       C  0.38330278  0.07049009  0.09918895    -0.26100
C2247       C  0.40895021  0.07090721  0.10528982    -0.15300
C2248       C  0.42525565  0.05401366  0.09290650     0.37000
N2249       N  0.45131420  0.05279478  0.09886487    -0.89600
H2250       H  0.42855951  0.02549675  0.06475122     0.18100
H2251       H  0.37027903  0.08288360  0.10856546     0.18100
N2252       N  0.34797903  0.05400445  0.07490314    -0.88600
H2253       H  0.46155554  0.05645961  0.08259213     0.35500
H2254       H  0.45542340  0.03459397  0.10460085     0.40600
H2255       H  0.34277800  0.07200368  0.06944424     0.40200
H2256       H  0.33814722  0.04960097  0.09123959     0.35100
C2257       C  0.92532612  0.34921645  0.92611193    -0.26600
C2258       C  0.93567394  0.36741716  0.94173707    -0.14700
C2259       C  0.92792267  0.39241002  0.93975281     0.35900
C2260       C  0.90968559  0.39875887  0.92215876    -0.26100
C2261       C  0.89907615  0.38069808  0.90618608    -0.15300
C2262       C  0.90722412  0.35548237  0.90834477     0.37000
N2263       N  0.89820288  0.33588397  0.89250885    -0.89600
H2264       H  0.93170600  0.33005213  0.92747791     0.18100
H2265       H  0.90392067  0.41810338  0.92091335     0.18100
N2266       N  0.93928074  0.41135696  0.95506900    -0.88600
H2267       H  0.90167866  0.34063820  0.87386713     0.35500
H2268       H  0.87901589  0.33369145  0.89545581     0.40600
H2269       H  0.93425599  0.40784696  0.97363742     0.40200
H2270       H  0.93214617  0.42899008  0.95068755     0.35100
C2271       C  0.07274562  0.39079022  0.93443371    -0.26600
C2272       C  0.06563047  0.36567342  0.93475470    -0.14700
C2273       C  0.07592846  0.34896542  0.91734593     0.35900
C2274       C  0.09319676  0.35770430  0.89960057    -0.26100
C2275       C  0.10038517  0.38306578  0.89896039    -0.15300
C2276       C  0.08995316  0.39967207  0.91682671     0.37000
N2277       N  0.09671815  0.42554770  0.91741508    -0.89600
H2278       H  0.06475531  0.40364320  0.94796772     0.18100
H2279       H  0.10088091  0.34450084  0.88625994     0.18100
N2280       N  0.06889602  0.32317447  0.91771943    -0.88600
H2281       H  0.10414379  0.42955404  0.93503759     0.35500
H2282       H  0.08047619  0.43617054  0.91517447     0.40600
H2283       H  0.08508039  0.31253238  0.92025158     0.40200
H2284       H  0.06144112  0.31865643  0.90023476     0.35100
C2285       C  0.91370089  0.36225546  0.10211081    -0.26600
C2286       C  0.90648356  0.38759152  0.10316180    -0.14700
C2287       C  0.91868552  0.40481175  0.08712266     0.35900
C2288       C  0.93653436  0.39631387  0.06990540    -0.26100
C2289       C  0.94296649  0.37105574  0.06848166    -0.15300
C2290       C  0.93196078  0.35388288  0.08502333     0.37000
N2291       N  0.93901738  0.32800154  0.08399567    -0.89600
H2292       H  0.90489508  0.34880044  0.11439451     0.18100
H2293       H  0.94540918  0.40955633  0.05739774     0.18100
N2294       N  0.91319544  0.43098251  0.08807912    -0.88600
H2295       H  0.92898158  0.31770550  0.09724196     0.35500
H2296       H  0.95784015  0.32681322  0.08906745     0.40600
H2297       H  0.90725043  0.43657725  0.07033902     0.40200
H2298       H  0.92973069  0.44053863  0.09216042     0.35100
C2299       C  0.08154839  0.39026354  0.05978377    -0.26600
C2300       C  0.07275581  0.36562947  0.06014812    -0.14700
C2301       C  0.08139726  0.34887155  0.07850703     0.35900
C2302       C  0.09776433  0.35758861  0.09687954    -0.26100
C2303       C  0.10575833  0.38262946  0.09734084    -0.15300
C2304       C  0.09812845  0.39896219  0.07807554     0.37000
N2305       N  0.10717164  0.42422498  0.07707124    -0.89600
H2306       H  0.07482870  0.40292283  0.04550286     0.18100
H2307       H  0.10382242  0.34470405  0.11124373     0.18100
N2308       N  0.07386425  0.32310314  0.07919417    -0.88600
H2309       H  0.09939387  0.43374966  0.06191518     0.35500
H2310       H  0.12643431  0.42343813  0.07378455     0.40600
H2311       H  0.06247019  0.31846121  0.06407714     0.40200
H2312       H  0.06324168  0.32048475  0.09542166     0.35100
C2313       C  0.62053013  0.89305540  0.92479926    -0.26600
C2314       C  0.60155446  0.90734269  0.93585128    -0.14700
C2315       C  0.57656346  0.90415025  0.92809802     0.35900
C2316       C  0.57131378  0.88727847  0.90891165    -0.26100
C2317       C  0.59024000  0.87314394  0.89716244    -0.15300
C2318       C  0.61520573  0.87579882  0.90566919     0.37000
N2319       N  0.63511929  0.86123780  0.89497259    -0.89600
H2320       H  0.63961367  0.89556527  0.93105947     0.18100
H2321       H  0.55202775  0.88555809  0.90305038     0.18100
N2322       N  0.55606293  0.91795989  0.93884898    -0.88600
H2323       H  0.63217944  0.84265303  0.90015635     0.35500
H2324       H  0.65234751  0.86640509  0.90256655     0.40600
H2325       H  0.56187911  0.93035850  0.95272418     0.40200
H2326       H  0.54418786  0.90512032  0.94756800     0.35100
C2327       C  0.57527833  0.05127078  0.89777380    -0.26600
C2328       C  0.59167716  0.07130500  0.89347138    -0.14700
C2329       C  0.61447251  0.07233798  0.90663479     0.35900
C2330       C  0.62015502  0.05374984  0.92419015    -0.26100
C2331       C  0.60334198  0.03425826  0.92901302    -0.15300
C2332       C  0.58082114  0.03279138  0.91549267     0.37000
N2333       N  0.56344570  0.01286644  0.92026715    -0.89600
H2334       H  0.55779355  0.05032069  0.88764064     0.18100
H2335       H  0.63736979  0.05498205  0.93475134     0.18100
N2336       N  0.63130934  0.09284057  0.90321648    -0.88600
H2337       H  0.54786063  0.01438981  0.90861783     0.35500
H2338       H  0.55691038  0.01492268  0.93860820     0.40600
H2339       H  0.64862993  0.08563627  0.89765864     0.40200
H2340       H  0.63364720  0.10171519  0.92049089     0.35100
C2341       C  0.58238933  0.92010487  0.08002878    -0.26600
C2342       C  0.60445657  0.91519031  0.06675911    -0.14700
C2343       C  0.61990502  0.89533317  0.07411640     0.35900
C2344       C  0.61292383  0.88045238  0.09455656    -0.26100
C2345       C  0.59054742  0.88503125  0.10771839    -0.15300
C2346       C  0.57529244  0.90528072  0.10038058     0.37000
N2347       N  0.55280039  0.91120160  0.11373430    -0.89600
H2348       H  0.57055591  0.93556367  0.07447746     0.18100
H2349       H  0.62487484  0.86500563  0.09983047     0.18100
N2350       N  0.64264732  0.89029527  0.06085434    -0.88600
H2351       H  0.53789822  0.91049251  0.10114593     0.35500
H2352       H  0.55424443  0.92951462  0.12040082     0.40600
H2353       H  0.65740096  0.89132818  0.07358908     0.40200
H2354       H  0.64180039  0.87199763  0.05404600     0.35100
C2355       C  0.58152111  0.05642495  0.09255927    -0.26600
C2356       C  0.59700201  0.07743087  0.09544283    -0.14700
C2357       C  0.61857130  0.07976320  0.08020806     0.35900
C2358       C  0.62402561  0.06099584  0.06249647    -0.26100
C2359       C  0.60821929  0.04030166  0.05966537    -0.15300
C2360       C  0.58689079  0.03802932  0.07484507     0.37000
N2361       N  0.57040459  0.01713506  0.07199986    -0.89600
H2362       H  0.56501359  0.05414457  0.10412978     0.18100
H2363       H  0.64034151  0.06265775  0.05055657     0.18100
N2364       N  0.63448607  0.10127677  0.08232048    -0.88600
H2365       H  0.55259492  0.02394510  0.06777360     0.35500
H2366       H  0.56936555  0.00783127  0.08914757     0.40600
H2367       H  0.62410793  0.11684155  0.07673867     0.40200
H2368       H  0.64959326  0.09989236  0.06993495     0.35100
C2369       C  0.89947144  0.59873391  0.90985211    -0.26600
C2370       C  0.89091404  0.57411498  0.91327396    -0.14700
C2371       C  0.90122653  0.55962011  0.93284676     0.35900
C2372       C  0.92043971  0.56972372  0.94772679    -0.26100
C2373       C  0.92924661  0.59402372  0.94366439    -0.15300
C2374       C  0.91850247  0.60878317  0.92482377     0.37000
N2375       N  0.92759003  0.63367373  0.92048504    -0.89600
H2376       H  0.89178674  0.61004695  0.89496622     0.18100
H2377       H  0.92881851  0.55855236  0.96235650     0.18100
N2378       N  0.89220240  0.53479514  0.93760819    -0.88600
H2379       H  0.91806648  0.64195755  0.90560406     0.35500
H2380       H  0.92346813  0.64432067  0.93638635     0.40600
H2381       H  0.87356842  0.53631462  0.94337632     0.40200
H2382       H  0.90193189  0.52667002  0.95244791     0.35100
C2383       C  0.92459460  0.56540686  0.06127512    -0.26600
C2384       C  0.92653879  0.59112666  0.05684905    -0.14700
C2385       C  0.90795850  0.60724886  0.06605052     0.35900
C2386       C  0.88862415  0.59773171  0.08089862    -0.26100
C2387       C  0.88733878  0.57215959  0.08686109    -0.15300
C2388       C  0.90511503  0.55562698  0.07601870     0.37000
N2389       N  0.90397278  0.52918543  0.08051729    -0.89600
H2390       H  0.93872581  0.55301145  0.05364969     0.18100
H2391       H  0.87495366  0.61070914  0.08836657     0.18100
N2392       N  0.90927383  0.63352263  0.06122435    -0.88600
H2393       H  0.91932680  0.52010332  0.07245372     0.35500
H2394       H  0.88820283  0.52237083  0.07123972     0.40600
H2395       H  0.91002563  0.64287001  0.07839354     0.40200
H2396       H  0.89280088  0.63883868  0.05220754     0.35100
C2397       C  0.06892007  0.55993163  0.93877511    -0.26600
C2398       C  0.06048082  0.58466073  0.93899872    -0.14700
C2399       C  0.07054959  0.60193121  0.92194413     0.35900
C2400       C  0.08886146  0.59397590  0.90472154    -0.26100
C2401       C  0.09730448  0.56901441  0.90412703    -0.15300
C2402       C  0.08714089  0.55192719  0.92163951     0.37000
N2403       N  0.09530792  0.52647240  0.92245034    -0.89600
H2404       H  0.06124968  0.54669972  0.95206164     0.18100
H2405       H  0.09640983  0.60740661  0.89160729     0.18100
N2406       N  0.06249183  0.62754085  0.92253581    -0.88600
H2407       H  0.07975781  0.51497614  0.91971480     0.35500
H2408       H  0.10235620  0.52293838  0.94031885     0.40600
H2409       H  0.04366471  0.62797727  0.91739688     0.40200
H2410       H  0.07217055  0.63802003  0.90917189     0.35100
C2411       C  0.06832710  0.55894435  0.06581187    -0.26600
C2412       C  0.05750174  0.58272503  0.06718169    -0.14700
C2413       C  0.06394524  0.59885727  0.08688047     0.35900
C2414       C  0.08153460  0.59118137  0.10468890    -0.26100
C2415       C  0.09255426  0.56734224  0.10340658    -0.15300
C2416       C  0.08564778  0.55104584  0.08375546     0.37000
N2417       N  0.09644667  0.52664677  0.08159001    -0.89600
H2418       H  0.06321124  0.54640859  0.05072938     0.18100
H2419       H  0.08634786  0.60386504  0.11973705     0.18100
N2420       N  0.05261752  0.62302225  0.08880260    -0.88600
H2421       H  0.10530584  0.52533592  0.06417528     0.35500
H2422       H  0.08195832  0.51355162  0.08201682     0.40600
H2423       H  0.04350253  0.62414151  0.10609811     0.40200
H2424       H  0.06683764  0.63640497  0.08858499     0.35100
C2425       C  0.41779960  0.40392169  0.87386403    -0.26600
C2426       C  0.43536917  0.41162164  0.89167275    -0.14700
C2427       C  0.43569146  0.40025462  0.91548652     0.35900
C2428       C  0.41821368  0.38174623  0.92096968    -0.26100
C2429       C  0.40003109  0.37427798  0.90353888    -0.15300
C2430       C  0.40015936  0.38521468  0.87942414     0.37000
N2431       N  0.38205475  0.37803907  0.86095731    -0.89600
H2432       H  0.41776183  0.41274987  0.85564208     0.18100
H2433       H  0.41865869  0.37348764  0.93945146     0.18100
N2434       N  0.45277858  0.40753774  0.93492419    -0.88600
H2435       H  0.38369609  0.38920800  0.84501626     0.35500
H2436       H  0.38643462  0.35987866  0.85521330     0.40600
H2437       H  0.46417361  0.42243136  0.92967493     0.40200
H2438       H  0.46455672  0.39235516  0.93839003     0.35100
C2439       C  0.56072335  0.40435890  0.91695806    -0.26600
C2440       C  0.56196838  0.41550895  0.89335614    -0.14700
C2441       C  0.58112152  0.40870910  0.87665942     0.35900
C2442       C  0.59894400  0.39087791  0.88388800    -0.26100
C2443       C  0.59809097  0.37991514  0.90779518    -0.15300
C2444       C  0.57853685  0.38672379  0.92436709     0.37000
N2445       N  0.57639585  0.37562540  0.94864151    -0.89600
H2446       H  0.54590293  0.40958260  0.92982283     0.18100
H2447       H  0.61373784  0.38597614  0.87088790     0.18100
N2448       N  0.58253111  0.42000144  0.85244978    -0.88600
H2449       H  0.55895419  0.36691539  0.94991554     0.35500
H2450       H  0.57700038  0.38989159  0.96200898     0.40600
H2451       H  0.58172299  0.40579541  0.83903385     0.40200
H2452       H  0.59990827  0.42878575  0.85083871     0.35100
C2453       C  0.41274043  0.57019001  0.92168542    -0.26600
C2454       C  0.39313133  0.57570111  0.90522680    -0.14700
C2455       C  0.39271152  0.56437375  0.88136552     0.35900
C2456       C  0.41174461  0.54759629  0.87451517    -0.26100
C2457       C  0.43111248  0.54200686  0.89118108    -0.15300
C2458       C  0.43169176  0.55351225  0.91482234     0.37000
N2459       N  0.45124586  0.54775167  0.93212178    -0.89600
H2460       H  0.41333494  0.57878991  0.94004406     0.18100
H2461       H  0.41110805  0.53845169  0.85642908     0.18100
N2462       N  0.37249496  0.56900743  0.86450373    -0.88600
H2463       H  0.46035046  0.56439437  0.93675635     0.35500
H2464       H  0.44305328  0.54062163  0.94838736     0.40600
H2465       H  0.36390021  0.55194036  0.86046880     0.40200
H2466       H  0.37998406  0.57605324  0.84786937     0.35100
C2467       C  0.55503552  0.55638336  0.91597678    -0.26600
C2468       C  0.55708474  0.54605590  0.89198744    -0.14700
C2469       C  0.57546501  0.55503615  0.87531283     0.35900
C2470       C  0.59169502  0.57388746  0.88334038    -0.26100
C2471       C  0.59017146  0.58402383  0.90767101    -0.15300
C2472       C  0.57116419  0.57539165  0.92400548     0.37000
N2473       N  0.56805035  0.58593356  0.94856314    -0.89600
H2474       H  0.54070608  0.54943958  0.92854536     0.18100
H2475       H  0.60588103  0.58034234  0.87037855     0.18100
N2476       N  0.57815263  0.54565840  0.85021810    -0.88600
H2477       H  0.55387156  0.57673441  0.95839709     0.35500
H2478       H  0.56198971  0.60434389  0.94624739     0.40600
H2479       H  0.56474024  0.53214470  0.84606248     0.40200
H2480       H  0.59558137  0.53689769  0.84895115     0.35100
C2481       C  0.43287605  0.41504545  0.08295004    -0.26600
C2482       C  0.44276705  0.41454120  0.10712576    -0.14700
C2483       C  0.43524750  0.39564300  0.12392959     0.35900
C2484       C  0.41815842  0.37749142  0.11587700    -0.26100
C2485       C  0.40839993  0.37765811  0.09141165    -0.15300
C2486       C  0.41587100  0.39692326  0.07490858     0.37000
N2487       N  0.40620760  0.39845061  0.04999953    -0.89600
H2488       H  0.43866763  0.42955892  0.07005805     0.18100
H2489       H  0.41263684  0.36305085  0.12893598     0.18100
N2490       N  0.44426281  0.39442018  0.14920756    -0.88600
H2491       H  0.42125970  0.39778003  0.03749057     0.35500
H2492       H  0.39734982  0.41573672  0.04796607     0.40600
H2493       H  0.45621823  0.40924083  0.15335830     0.40200
H2494       H  0.45475853  0.37803704  0.15088663     0.35100
C2495       C  0.42671607  0.53880749  0.08070684    -0.26600
C2496       C  0.43542433  0.53972772  0.10531923    -0.14700
C2497       C  0.42288452  0.55469315  0.12314655     0.35900
C2498       C  0.40162363  0.56813265  0.11586081    -0.26100
C2499       C  0.39262173  0.56723160  0.09111675    -0.15300
C2500       C  0.40563294  0.55237347  0.07337003     0.37000
N2501       N  0.39767520  0.55082030  0.04785072    -0.89600
H2502       H  0.43632402  0.52723783  0.06705451     0.18100
H2503       H  0.39222836  0.57950964  0.12978285     0.18100
N2504       N  0.43116042  0.55679387  0.14862721    -0.88600
H2505       H  0.39404569  0.53209152  0.04365007     0.35500
H2506       H  0.41238733  0.55682539  0.03643184     0.40600
H2507       H  0.44743799  0.54654131  0.15177349     0.40200
H2508       H  0.41728064  0.54907244  0.16003595     0.35100
C2509       C  0.60026227  0.38679937  0.11718944    -0.26600
C2510       C  0.61007595  0.38696812  0.09274493    -0.14700
C2511       C  0.60225909  0.40567299  0.07580478     0.35900
C2512       C  0.58374757  0.42269305  0.08318509    -0.26100
C2513       C  0.57321453  0.42165800  0.10712903    -0.15300
C2514       C  0.58183571  0.40404127  0.12454024     0.37000
N2515       N  0.57136009  0.40340572  0.14931185    -0.89600
H2516       H  0.60631966  0.37267300  0.13032246     0.18100
H2517       H  0.57712533  0.43662072  0.07009051     0.18100
N2518       N  0.61304082  0.40730840  0.05118424    -0.88600
H2519       H  0.57960561  0.38917397  0.15980966     0.35500
H2520       H  0.57596626  0.42022790  0.15812401     0.40600
H2521       H  0.63193808  0.41178807  0.05329607     0.40200
H2522       H  0.60496111  0.42190988  0.04106668     0.35100
C2523       C  0.57830806  0.54628728  0.08296277    -0.26600
C2524       C  0.56623965  0.54780075  0.10617737    -0.14700
C2525       C  0.57237600  0.56718902  0.12291768     0.35900
C2526       C  0.58995466  0.58517771  0.11581562    -0.26100
C2527       C  0.60149728  0.58423266  0.09217374    -0.15300
C2528       C  0.59601909  0.56419074  0.07578871     0.37000
N2529       N  0.60853173  0.56197228  0.05203430    -0.89600
H2530       H  0.57373412  0.53108534  0.07036412     0.18100
H2531       H  0.59409894  0.60033775  0.12859956     0.18100
N2532       N  0.56103754  0.56896179  0.14715551    -0.88600
H2533       H  0.60216097  0.54630310  0.04224804     0.35500
H2534       H  0.62750205  0.55895217  0.05558828     0.40600
H2535       H  0.56462222  0.55237043  0.15677987     0.40200
H2536       H  0.54171877  0.57068709  0.14492699     0.35100
C2537       C  0.88093108  0.40745563  0.41515459    -0.26600
C2538       C  0.89782479  0.41302339  0.43429149    -0.14700
C2539       C  0.92143646  0.40161175  0.43450576     0.35900
C2540       C  0.92778437  0.38449595  0.41575600    -0.26100
C2541       C  0.91092007  0.37851889  0.39648839    -0.15300
C2542       C  0.88724100  0.39035420  0.39622810     0.37000
N2543       N  0.86970926  0.38556478  0.37661954    -0.89600
H2544       H  0.86288131  0.41664625  0.41478122     0.18100
H2545       H  0.94607811  0.37587917  0.41644362     0.18100
N2546       N  0.93914943  0.40773170  0.45359675    -0.88600
H2547       H  0.86569144  0.40249555  0.36778441     0.35500
H2548       H  0.85320431  0.37889814  0.38472029     0.40600
H2549       H  0.95524300  0.41468362  0.44492562     0.40200
H2550       H  0.94394126  0.39126820  0.46291134     0.35100
C2551       C  0.87616165  0.40325893  0.57845846    -0.26600
C2552       C  0.89493202  0.41094550  0.56188257    -0.14700
C2553       C  0.91922944  0.40146131  0.56426222     0.35900
C2554       C  0.92447508  0.38407524  0.58294187    -0.26100
C2555       C  0.90588055  0.37616321  0.59981346    -0.15300
C2556       C  0.88140281  0.38613983  0.59769400     0.37000
N2557       N  0.86220797  0.37958807  0.61538012    -0.89600
H2558       H  0.85760673  0.41119144  0.57676632     0.18100
H2559       H  0.94337635  0.37693959  0.58429343     0.18100
N2560       N  0.93878147  0.41005396  0.54806649    -0.88600
H2561       H  0.84531181  0.38825688  0.61080892     0.35500
H2562       H  0.86749931  0.38678015  0.63277555     0.40600
H2563       H  0.95276124  0.41798391  0.55915611     0.40200
H2564       H  0.94638799  0.39456446  0.53885150     0.35100
C2565       C  0.87568488  0.54754542  0.41666640    -0.26600
C2566       C  0.89231097  0.54308623  0.43636664    -0.14700
C2567       C  0.91545177  0.55566828  0.43694471     0.35900
C2568       C  0.92169573  0.57209434  0.41773708    -0.26100
C2569       C  0.90548484  0.57621873  0.39753338    -0.15300
C2570       C  0.88207772  0.56388313  0.39706045     0.37000
N2571       N  0.86536317  0.56711199  0.37631733    -0.89600
H2572       H  0.85814339  0.53745212  0.41612132     0.18100
H2573       H  0.93965744  0.58141211  0.41846749     0.18100
N2574       N  0.93340045  0.55133006  0.45630490    -0.88600
H2575       H  0.84891227  0.55693648  0.37909242     0.35500
H2576       H  0.87404411  0.55948139  0.36050158     0.40600
H2577       H  0.93763917  0.53227316  0.45670689     0.40200
H2578       H  0.92549725  0.55638231  0.47347123     0.35100
C2579       C  0.91704544  0.55430020  0.55929423    -0.26600
C2580       C  0.89465347  0.54112518  0.56242229    -0.14700
C2581       C  0.87889224  0.54660322  0.58296090     0.35900
C2582       C  0.88625431  0.56491726  0.60012022    -0.26100
C2583       C  0.90892177  0.57795473  0.59729217    -0.15300
C2584       C  0.92427625  0.57269594  0.57638548     0.37000
N2585       N  0.94707505  0.58609544  0.57217666    -0.89600
H2586       H  0.92907013  0.55015706  0.54345255     0.18100
H2587       H  0.87422412  0.56861633  0.61603665     0.18100
N2588       N  0.85557203  0.53389846  0.58717548    -0.88600
H2589       H  0.94597030  0.59474079  0.55469560     0.35500
H2590       H  0.96174798  0.57319554  0.57156159     0.40600
H2591       H  0.85186436  0.52077306  0.57323226     0.40200
H2592       H  0.84131784  0.54721813  0.58615641     0.35100
C2593       C  0.41805345  0.85357193  0.42674324    -0.26600
C2594       C  0.43472242  0.87180732  0.43531443    -0.14700
C2595       C  0.43341563  0.89617257  0.42574779     0.35900
C2596       C  0.41536901  0.90213055  0.40783268    -0.26100
C2597       C  0.39845522  0.88404043  0.39911332    -0.15300
C2598       C  0.39992929  0.85946749  0.40869980     0.37000
N2599       N  0.38263935  0.84065109  0.40080423    -0.89600
H2600       H  0.41893988  0.83482723  0.43429345     0.18100
H2601       H  0.41466407  0.92105046  0.40071237     0.18100
N2602       N  0.45029250  0.91498745  0.43452961    -0.88600
H2603       H  0.37306124  0.83417499  0.41658330     0.35500
H2604       H  0.39286399  0.82575758  0.39329707     0.40600
H2605       H  0.46021633  0.92189436  0.41915593     0.40200
H2606       H  0.43971669  0.92960675  0.44208963     0.35100
C2607       C  0.58009000  0.85615727  0.42661391    -0.26600
C2608       C  0.56145886  0.87362607  0.43234925    -0.14700
C2609       C  0.56148629  0.89710876  0.42054267     0.35900
C2610       C  0.58086908  0.90308383  0.40386313    -0.26100
C2611       C  0.60011552  0.88597688  0.39860539    -0.15300
C2612       C  0.59953353  0.86206382  0.40991128     0.37000
N2613       N  0.61910568  0.84421973  0.40524681    -0.89600
H2614       H  0.57994140  0.83823237  0.43598972     0.18100
H2615       H  0.58105111  0.92130430  0.39508301     0.18100
N2616       N  0.54237980  0.91513148  0.42635565    -0.88600
H2617       H  0.61556668  0.82750816  0.41469871     0.35500
H2618       H  0.63559155  0.85147644  0.41278445     0.40600
H2619       H  0.52541069  0.90812666  0.41972587     0.40200
H2620       H  0.54558858  0.93181134  0.41673065     0.35100
C2621       C  0.39822946  0.86256702  0.58828221    -0.26600
C2622       C  0.39962404  0.88485730  0.60211391    -0.14700
C2623       C  0.42041638  0.90071872  0.59881412     0.35900
C2624       C  0.43861918  0.89480396  0.58085194    -0.26100
C2625       C  0.43654971  0.87316311  0.56621124    -0.15300
C2626       C  0.41653485  0.85663780  0.57037354     0.37000
N2627       N  0.41460895  0.83404997  0.55612972    -0.89600
H2628       H  0.38248288  0.85008663  0.59077534     0.18100
H2629       H  0.45421730  0.90739978  0.57797872     0.18100
N2630       N  0.42326022  0.92269907  0.61386055    -0.88600
H2631       H  0.39755319  0.83431006  0.54664186     0.35500
H2632       H  0.41431200  0.81905919  0.56862298     0.40600
H2633       H  0.42432505  0.93811827  0.60193903     0.40200
H2634       H  0.44020257  0.92132179  0.62345519     0.35100
C2635       C  0.58100597  0.90093647  0.59651284    -0.26600
C2636       C  0.60118603  0.88447685  0.60021666    -0.14700
C2637       C  0.60285149  0.86276770  0.58488447     0.35900
C2638       C  0.58460677  0.85827322  0.56666220    -0.26100
C2639       C  0.56465747  0.87485761  0.56321929    -0.15300
C2640       C  0.56293870  0.89635387  0.57821697     0.37000
N2641       N  0.54294589  0.91378267  0.57463615    -0.89600
H2642       H  0.57910595  0.91762137  0.60784607     0.18100
H2643       H  0.58604748  0.84175902  0.55498707     0.18100
N2644       N  0.62297499  0.84522334  0.58676273    -0.88600
H2645       H  0.55074999  0.93119290  0.57049303     0.35500
H2646       H  0.53311521  0.91539690  0.59149588     0.40600
H2647       H  0.62238802  0.83680593  0.60436426     0.40200
H2648       H  0.63990313  0.85469830  0.58444563     0.35100
C2649       C  0.08580002  0.39405540  0.44164865    -0.26600
C2650       C  0.10889942  0.40609414  0.43968876    -0.14700
C2651       C  0.12564803  0.39926403  0.42063442     0.35900
C2652       C  0.11891412  0.38061585  0.40345751    -0.26100
C2653       C  0.09537596  0.36889610  0.40478338    -0.15300
C2654       C  0.07882154  0.37562455  0.42444540     0.37000
N2655       N  0.05486223  0.36396414  0.42712114    -0.89600
H2656       H  0.07289614  0.39935721  0.45641350     0.18100
H2657       H  0.13194968  0.37584388  0.38865543     0.18100
N2658       N  0.14934592  0.41149759  0.41854778    -0.88600
H2659       H  0.04114567  0.37785385  0.42620954     0.35500
H2660       H  0.05393635  0.35578056  0.44484015     0.40600
H2661       H  0.16332583  0.39789912  0.41965910     0.40200
H2662       H  0.15040423  0.41972994  0.40086200     0.35100
C2663       C  0.12403769  0.54503336  0.41893945    -0.26600
C2664       C  0.10585945  0.53671604  0.43584135    -0.14700
C2665       C  0.08155930  0.54677076  0.43510985     0.35900
C2666       C  0.07574833  0.56483620  0.41709788    -0.26100
C2667       C  0.09381178  0.57320064  0.39989784    -0.15300
C2668       C  0.11828784  0.56327787  0.40104764     0.37000
N2669       N  0.13723601  0.57121537  0.38383465    -0.89600
H2670       H  0.14274719  0.53730251  0.41965032     0.18100
H2671       H  0.05701114  0.57250142  0.41661281     0.18100
N2672       N  0.06298802  0.53867923  0.45282876    -0.88600
H2673       H  0.14366053  0.55553161  0.37406068     0.35500
H2674       H  0.15215145  0.57844570  0.39415365     0.40600
H2675       H  0.05932397  0.51982075  0.44932671     0.40200
H2676       H  0.04617174  0.54822971  0.45007685     0.35100
C2677       C  0.11364494  0.38683304  0.60357794    -0.26600
C2678       C  0.09102558  0.37384673  0.60049573    -0.14700
C2679       C  0.07618844  0.37849154  0.57919066     0.35900
C2680       C  0.08387571  0.39662596  0.56192914    -0.26100
C2681       C  0.10615409  0.40991938  0.56535904    -0.15300
C2682       C  0.12126550  0.40486003  0.58628758     0.37000
N2683       N  0.14439407  0.41769032  0.59031014    -0.89600
H2684       H  0.12523046  0.38333914  0.61979253     0.18100
H2685       H  0.07245401  0.40051154  0.54568510     0.18100
N2686       N  0.05359180  0.36459394  0.57497933    -0.88600
H2687       H  0.14072145  0.43679464  0.59189500     0.35500
H2688       H  0.15581112  0.41484691  0.57465423     0.40600
H2689       H  0.05861376  0.34591017  0.57222736     0.40200
H2690       H  0.04486565  0.37044647  0.55852738     0.35100
C2691       C  0.12059643  0.54289149  0.58366714    -0.26600
C2692       C  0.10568474  0.54031746  0.56233214    -0.14700
C2693       C  0.08461624  0.55571810  0.55928533     0.35900
C2694       C  0.07872341  0.57342803  0.57763262    -0.26100
C2695       C  0.09336823  0.57586421  0.59927484    -0.15300
C2696       C  0.11454655  0.56040981  0.60223796     0.37000
N2697       N  0.12937690  0.56168627  0.62445626    -0.89600
H2698       H  0.13662142  0.53077204  0.58619131     0.18100
H2699       H  0.06243590  0.58514510  0.57497735     0.18100
N2700       N  0.06884344  0.55295331  0.53784941    -0.88600
H2701       H  0.14779297  0.56565842  0.61922105     0.35500
H2702       H  0.12915252  0.54410451  0.63292908     0.40600
H2703       H  0.06826550  0.57008061  0.52850757     0.40200
H2704       H  0.05077355  0.54885023  0.54410487     0.35100
C2705       C  0.41724071  0.04782400  0.40885330    -0.26600
C2706       C  0.39954850  0.06628524  0.40276847    -0.14700
C2707       C  0.40107194  0.08986907  0.41465168     0.35900
C2708       C  0.41976403  0.09428686  0.43251379    -0.26100
C2709       C  0.43709032  0.07566958  0.43856989    -0.15300
C2710       C  0.43595870  0.05238422  0.42651132     0.37000
N2711       N  0.45374279  0.03327774  0.43236034    -0.89600
H2712       H  0.41667049  0.02969621  0.39982985     0.18100
H2713       H  0.42068552  0.11226442  0.44181230     0.18100
N2714       N  0.38343623  0.10920541  0.40914672    -0.88600
H2715       H  0.46308377  0.02835903  0.41586086     0.35500
H2716       H  0.44393385  0.01761298  0.43867155     0.40600
H2717       H  0.39334022  0.12477821  0.40275517     0.40200
H2718       H  0.37435954  0.11417923  0.42577476     0.35100
C2719       C  0.41805825  0.04794125  0.59704919    -0.26600
C2720       C  0.40095436  0.06664416  0.60416381    -0.14700
C2721       C  0.40353562  0.09092263  0.59392813     0.35900
C2722       C  0.42276666  0.09561295  0.57652664    -0.26100
C2723       C  0.43915410  0.07659025  0.56908127    -0.15300
C2724       C  0.43697432  0.05271638  0.57960493     0.37000
N2725       N  0.45364292  0.03312713  0.57209028    -0.89600
H2726       H  0.41656935  0.02929961  0.60476434     0.18100
H2727       H  0.42459830  0.11394745  0.56817836     0.18100
N2728       N  0.38627484  0.11047485  0.60047106    -0.88600
H2729       H  0.46275723  0.02653984  0.58804074     0.35500
H2730       H  0.44294657  0.01852025  0.56476266     0.40600
H2731       H  0.36878821  0.10549588  0.59335174     0.40200
H2732       H  0.39124402  0.12720898  0.59172460     0.35100
C2733       C  0.58508608  0.05036843  0.40832821    -0.26600
C2734       C  0.60028183  0.06949151  0.39859236    -0.14700
C2735       C  0.59710972  0.09422455  0.40763152     0.35900
C2736       C  0.57914374  0.09900711  0.42633594    -0.26100
C2737       C  0.56452622  0.07967005  0.43612149    -0.15300
C2738       C  0.56733011  0.05528741  0.42690736     0.37000
N2739       N  0.55222968  0.03544034  0.43663056    -0.89600
H2740       H  0.58697501  0.03136138  0.40158167     0.18100
H2741       H  0.57671026  0.11777002  0.43357464     0.18100
N2742       N  0.61234556  0.11427677  0.39830794    -0.88600
H2743       H  0.56412957  0.02179059  0.44391199     0.35500
H2744       H  0.54234143  0.02751329  0.42176657     0.40600
H2745       H  0.63069249  0.11091685  0.40408141     0.40200
H2746       H  0.60702285  0.13127091  0.40639103     0.35100
C2747       C  0.56913537  0.05374879  0.57358090    -0.26600
C2748       C  0.56644953  0.07881586  0.56687451    -0.14700
C2749       C  0.58129889  0.09703959  0.57844866     0.35900
C2750       C  0.59875016  0.08987581  0.59665818    -0.26100
C2751       C  0.60163929  0.06461254  0.60356878    -0.15300
C2752       C  0.58651786  0.04642167  0.59164340     0.37000
N2753       N  0.58860299  0.02043540  0.59760994    -0.89600
H2754       H  0.55764522  0.03970162  0.56459259     0.18100
H2755       H  0.60998217  0.10424841  0.60541197     0.18100
N2756       N  0.57857391  0.12278874  0.57182674    -0.88600
H2757       H  0.59310761  0.01071076  0.58122405     0.35500
H2758       H  0.57115874  0.01417848  0.60385088     0.40600
H2759       H  0.59590276  0.12926723  0.56549443     0.40200
H2760       H  0.57388836  0.13275550  0.58801571     0.35100
loop_ 
_geom_bond_atom_site_label_1 
_geom_bond_atom_site_label_2 
_geom_bond_distance 
_geom_bond_site_symmetry_2 
_ccdc_geom_bond_type 
N1            C6   1.354       .  A
N1            C5   1.354       .  A
N1           H33   1.039       .  S
N2            C9   1.350       .  A
N2           C10   1.351       .  A
N3            C8   1.353       .  A
N3            C7   1.353       .  A
N3           H34   1.038       .  S
N4           C11   1.349       .  A
N4           C12   1.350       .  A
C5           C13   1.388       .  A
C5           C21   1.416       .  A
C6           C22   1.415       .  A
C6           C14   1.387       .  A
C7           C15   1.388       .  A
C7           C24   1.415       .  A
C8           C23   1.414       .  A
C8           C16   1.387       .  A
C9           C21   1.411       .  A
C9           C17   1.386       .  A
C10          C24   1.411       .  A
C10          C18   1.386       .  A
C11          C19   1.386       .  A
C11          C22   1.409       .  A
C12          C20   1.386       .  A
C12          C23   1.410       .  A
C13          C14   1.373       .  A
C13          H25   1.082       .  S
C14          H26   1.082       .  S
C15          C16   1.374       .  A
C15          H27   1.082       .  S
C16          H28   1.082       .  S
C17          C18   1.372       .  A
C17          H29   1.082       .  S
C18          H30   1.082       .  S
C19          C20   1.371       .  A
C19          H31   1.082       .  S
C20          H32   1.082       .  S
C21        C2748   1.483       .  S
C22        C2737   1.481       .  S
C23        C2709   1.483       .  S
C24        C2723   1.482       .  S
N35          C40   1.351       .  A
N35          C39   1.352       .  A
N35          H67   1.041       .  S
N36          C43   1.349       .  A
N36          C44   1.349       .  A
N37          C42   1.353       .  A
N37          C41   1.352       .  A
N37          H68   1.040       .  S
N38          C45   1.349       .  A
N38          C46   1.349       .  A
C39          C47   1.387       .  A
C39          C55   1.411       .  A
C40          C56   1.412       .  A
C40          C48   1.388       .  A
C41          C49   1.388       .  A
C41          C58   1.413       .  A
C42          C57   1.412       .  A
C42          C50   1.387       .  A
C43          C55   1.408       .  A
C43          C51   1.386       .  A
C44          C58   1.408       .  A
C44          C52   1.386       .  A
C45          C53   1.386       .  A
C45          C56   1.409       .  A
C46          C54   1.386       .  A
C46          C57   1.407       .  A
C47          C48   1.373       .  A
C47          H59   1.082       .  S
C48          H60   1.082       .  S
C49          C50   1.375       .  A
C49          H61   1.082       .  S
C50          H62   1.082       .  S
C51          C52   1.372       .  A
C51          H63   1.083       .  S
C52          H64   1.082       .  S
C53          C54   1.372       .  A
C53          H65   1.082       .  S
C54          H66   1.082       .  S
C55        C2681   1.482       .  S
C56        C2692   1.482       .  S
C57        C2664   1.481       .  S
C58        C2650   1.480       .  S
N69          C74   1.350       .  A
N69          C73   1.351       .  A
N69         H101   1.049       .  S
N70          C77   1.352       .  A
N70          C78   1.352       .  A
N71          C76   1.349       .  A
N71          C75   1.349       .  A
N71         H102   1.049       .  S
N72          C79   1.352       .  A
N72          C80   1.352       .  A
C73          C81   1.387       .  A
C73          C89   1.415       .  A
C74          C90   1.414       .  A
C74          C82   1.387       .  A
C75          C83   1.387       .  A
C75          C92   1.412       .  A
C76          C91   1.412       .  A
C76          C84   1.387       .  A
C77          C89   1.413       .  A
C77          C85   1.386       .  A
C78          C92   1.414       .  A
C78          C86   1.387       .  A
C79          C87   1.387       .  A
C79          C90   1.414       .  A
C80          C88   1.386       .  A
C80          C91   1.413       .  A
C81          C82   1.375       .  A
C81          H93   1.083       .  S
C82          H94   1.083       .  S
C83          C84   1.376       .  A
C83          H95   1.083       .  S
C84          H96   1.083       .  S
C85          C86   1.371       .  A
C85          H97   1.082       .  S
C86          H98   1.082       .  S
C87          C88   1.371       .  A
C87          H99   1.082       .  S
C88         H100   1.082       .  S
C89        C2639   1.487       .  S
C90        C2625   1.487       .  S
C91        C2594   1.483       .  S
C92        C2608   1.483       .  S
N103        C108   1.352       .  A
N103        C107   1.353       .  A
N103        H135   1.040       .  S
N104        C111   1.349       .  A
N104        C112   1.347       .  A
N105        C110   1.351       .  A
N105        C109   1.352       .  A
N105        H136   1.040       .  S
N106        C113   1.349       .  A
N106        C114   1.350       .  A
C107        C115   1.387       .  A
C107        C123   1.413       .  A
C108        C124   1.412       .  A
C108        C116   1.387       .  A
C109        C117   1.387       .  A
C109        C126   1.411       .  A
C110        C125   1.411       .  A
C110        C118   1.387       .  A
C111        C123   1.407       .  A
C111        C119   1.385       .  A
C112        C126   1.407       .  A
C112        C120   1.386       .  A
C113        C121   1.386       .  A
C113        C124   1.410       .  A
C114        C122   1.386       .  A
C114        C125   1.409       .  A
C115        C116   1.372       .  A
C115        H127   1.082       .  S
C116        H128   1.082       .  S
C117        C118   1.373       .  A
C117        H129   1.082       .  S
C118        H130   1.082       .  S
C119        C120   1.373       .  A
C119        H131   1.082       .  S
C120        H132   1.082       .  S
C121        C122   1.373       .  A
C121        H133   1.082       .  S
C122        H134   1.082       .  S
C123       C2566   1.484       .  S
C124       C2538   1.480       .  S
C125       C2552   1.479       .  S
C126       C2580   1.479       .  S
N137        C142   1.350       .  A
N137        C141   1.350       .  A
N137        H169   1.040       .  S
N138        C145   1.350       .  A
N138        C146   1.351       .  A
N139        C144   1.350       .  A
N139        C143   1.349       .  A
N139        H170   1.041       .  S
N140        C147   1.350       .  A
N140        C148   1.351       .  A
C141        C149   1.387       .  A
C141        C157   1.412       .  A
C142        C158   1.411       .  A
C142        C150   1.387       .  A
C143        C151   1.387       .  A
C143        C160   1.410       .  A
C144        C159   1.410       .  A
C144        C152   1.386       .  A
C145        C157   1.412       .  A
C145        C153   1.387       .  A
C146        C160   1.410       .  A
C146        C154   1.385       .  A
C147        C155   1.387       .  A
C147        C158   1.411       .  A
C148        C156   1.386       .  A
C148        C159   1.410       .  A
C149        C150   1.376       .  A
C149        H161   1.083       .  S
C150        H162   1.083       .  S
C151        C152   1.376       .  A
C151        H163   1.082       .  S
C152        H164   1.082       .  S
C153        C154   1.374       .  A
C153        H165   1.082       .  S
C154        H166   1.082       .  S
C155        C156   1.372       .  A
C155        H167   1.082       .  S
C156        H168   1.082       .  S
C157       C2524   1.481       .  S
C158       C2513   1.479       .  S
C159       C2482   1.481       .  S
C160       C2496   1.481       .  S
N171        C176   1.351       .  A
N171        C175   1.350       .  A
N171        H203   1.038       .  S
N172        C179   1.351       .  A
N172        C180   1.351       .  A
N173        C178   1.351       .  A
N173        C177   1.351       .  A
N173        H204   1.038       .  S
N174        C181   1.351       .  A
N174        C182   1.351       .  A
C175        C183   1.387       .  A
C175        C191   1.411       .  A
C176        C192   1.411       .  A
C176        C184   1.386       .  A
C177        C185   1.387       .  A
C177        C194   1.413       .  A
C178        C193   1.413       .  A
C178        C186   1.387       .  A
C179        C191   1.412       .  A
C179        C187   1.386       .  A
C180        C194   1.412       .  A
C180        C188   1.386       .  A
C181        C189   1.386       .  A
C181        C192   1.411       .  A
C182        C190   1.386       .  A
C182        C193   1.411       .  A
C183        C184   1.376       .  A
C183        H195   1.083       .  S
C184        H196   1.082       .  S
C185        C186   1.376       .  A
C185        H197   1.082       .  S
C186        H198   1.082       .  S
C187        C188   1.372       .  A
C187        H199   1.082       .  S
C188        H200   1.082       .  S
C189        C190   1.371       .  A
C189        H201   1.082       .  S
C190        H202   1.082       .  S
C191       C2468   1.480       .  S
C192       C2457   1.482       .  S
C193       C2426   1.481       .  S
C194       C2440   1.483       .  S
N205        C210   1.349   1_655  A
N205        C209   1.352       .  A
N205        H237   1.035       .  S
N206        C213   1.350       .  A
N206        C214   1.350   1_554  A
N207        C212   1.350   1_655  A
N207        C211   1.354       .  A
N207        H238   1.036       .  S
N208        C215   1.352       .  A
N208        C216   1.351   1_554  A
C209        C217   1.386       .  A
C209        C225   1.415       .  A
C210        C226   1.415       .  A
C210        C218   1.389       .  A
C211        C219   1.385       .  A
C211        C228   1.414       .  A
C212        C227   1.417       .  A
C212        C220   1.389       .  A
C213        C225   1.399       .  A
C213        C221   1.383       .  A
C214        C228   1.399       .  A
C214        C222   1.384       .  A
C215        C223   1.386       .  A
C215        C226   1.416       .  A
C216        C224   1.386       .  A
C216        C227   1.416       .  A
C217        C218   1.379   1_655  A
C217        H229   1.082       .  S
C218        H230   1.082       .  S
C219        C220   1.381   1_655  A
C219        H231   1.082       .  S
C220        H232   1.082       .  S
C221        C222   1.371   1_554  A
C221        H233   1.083       .  S
C222        H234   1.083       .  S
C223        C224   1.375   1_554  A
C223        H235   1.082       .  S
C224        H236   1.082       .  S
C225       C2384   1.481       .  S
C226       C2412   1.484       .  S
C227       C2398   1.485       .  S
C228       C2373   1.480       .  S
N239        C244   1.350       .  A
N239        C243   1.350       .  A
N239        H271   1.041       .  S
N240        C247   1.351   1_556  A
N240        C248   1.350       .  A
N241        C246   1.352       .  A
N241        C245   1.350       .  A
N241        H272   1.041       .  S
N242        C249   1.351   1_556  A
N242        C250   1.351       .  A
C243        C251   1.386       .  A
C243        C259   1.410       .  A
C244        C260   1.412   1_565  A
C244        C252   1.387       .  A
C245        C253   1.388       .  A
C245        C262   1.413       .  A
C246        C261   1.412   1_565  A
C246        C254   1.386       .  A
C247        C259   1.411       .  A
C247        C255   1.386       .  A
C248        C262   1.412       .  A
C248        C256   1.387       .  A
C249        C257   1.386       .  A
C249        C260   1.411       .  A
C250        C258   1.386       .  A
C250        C261   1.412       .  A
C251        C252   1.375       .  A
C251        H263   1.083       .  S
C252        H264   1.083   1_565  S
C253        C254   1.376       .  A
C253        H265   1.082       .  S
C254        H266   1.082       .  S
C255        C256   1.373   1_554  A
C255        H267   1.082       .  S
C256        H268   1.082       .  S
C257        C258   1.371   1_554  A
C257        H269   1.082       .  S
C258        H270   1.082       .  S
C259       C2342   1.482       .  S
C260       C2359   1.482       .  S
C261       C2331   1.486       .  S
C262       C2314   1.480       .  S
N273        C278   1.354   1_455  A
N273        C277   1.352       .  A
N273        H305   1.038       .  S
N274        C281   1.349   1_556  A
N274        C282   1.349       .  A
N275        C280   1.353   1_455  A
N275        C279   1.354       .  A
N275        H306   1.038       .  S
N276        C283   1.351       .  A
N276        C284   1.350   1_554  A
C277        C285   1.388       .  A
C277        C293   1.414       .  A
C278        C294   1.412       .  A
C278        C286   1.386       .  A
C279        C287   1.387       .  A
C279        C296   1.414       .  A
C280        C295   1.414       .  A
C280        C288   1.388       .  A
C281        C293   1.408       .  A
C281        C289   1.386       .  A
C282        C296   1.408       .  A
C282        C290   1.386       .  A
C283        C291   1.386       .  A
C283        C294   1.411       .  A
C284        C292   1.386       .  A
C284        C295   1.411       .  A
C285        C286   1.371   1_455  A
C285        H297   1.082       .  S
C286        H298   1.082       .  S
C287        C288   1.371   1_455  A
C287        H299   1.082       .  S
C288        H300   1.082       .  S
C289        C290   1.371   1_554  A
C289        H301   1.082       .  S
C290        H302   1.083       .  S
C291        C292   1.371   1_554  A
C291        H303   1.082       .  S
C292        H304   1.082       .  S
C293       C2300   1.478       .  S
C294       C2289   1.484       .  S
C295       C2258   1.481       .  S
C296       C2272   1.480       .  S
N307        C312   1.353       .  A
N307        C311   1.353   1_554  A
N307        H339   1.040       .  S
N308        C315   1.352       .  A
N308        C316   1.351       .  A
N309        C314   1.355       .  A
N309        C313   1.352   1_554  A
N309        H340   1.040       .  S
N310        C317   1.348       .  A
N310        C318   1.349       .  A
C311        C319   1.387       .  A
C311        C327   1.413       .  A
C312        C328   1.413       .  A
C312        C320   1.387       .  A
C313        C321   1.387       .  A
C313        C330   1.415       .  A
C314        C329   1.416       .  A
C314        C322   1.387       .  A
C315        C327   1.412   1_565  A
C315        C323   1.386       .  A
C316        C330   1.412       .  A
C316        C324   1.387       .  A
C317        C325   1.386       .  A
C317        C328   1.406   1_565  A
C318        C326   1.386       .  A
C318        C329   1.409       .  A
C319        C320   1.373   1_556  A
C319        H331   1.082       .  S
C320        H332   1.082       .  S
C321        C322   1.375   1_556  A
C321        H333   1.082       .  S
C322        H334   1.082       .  S
C323        C324   1.372       .  A
C323        H335   1.083   1_565  S
C324        H336   1.082       .  S
C325        C326   1.371       .  A
C325        H337   1.082   1_565  S
C326        H338   1.082       .  S
C327       C2230   1.484       .  S
C328       C2244   1.478       .  S
C329       C2216   1.489       .  S
C330       C2202   1.485       .  S
N341        C346   1.351       .  A
N341        C345   1.352   1_655  A
N341        H373   1.040   1_545  S
N342        C349   1.349       .  A
N342        C350   1.349       .  A
N343        C348   1.353   1_455  A
N343        C347   1.353       .  A
N343        H374   1.040   1_455  S
N344        C351   1.350       .  A
N344        C352   1.349       .  A
C345        C353   1.387       .  A
C345        C361   1.411       .  A
C346        C362   1.413       .  A
C346        C354   1.388       .  A
C347        C355   1.387       .  A
C347        C364   1.413       .  A
C348        C363   1.413       .  A
C348        C356   1.387       .  A
C349        C361   1.409   1_565  A
C349        C357   1.386       .  A
C350        C364   1.409       .  A
C350        C358   1.386       .  A
C351        C359   1.387       .  A
C351        C362   1.411   1_565  A
C352        C360   1.385       .  A
C352        C363   1.408       .  A
C353        C354   1.374   1_455  A
C353        H365   1.082       .  S
C354        H366   1.082       .  S
C355        C356   1.372   1_455  A
C355        H367   1.082       .  S
C356        H368   1.082       .  S
C357        C358   1.371       .  A
C357        H369   1.082   1_565  S
C358        H370   1.083       .  S
C359        C360   1.372       .  A
C359        H371   1.082       .  S
C360        H372   1.082       .  S
C361       C2188   1.481       .  S
C362       C2160   1.486       .  S
C363       C2146   1.482       .  S
C364       C2174   1.482       .  S
N375        C380   1.352   1_565  A
N375        C379   1.353       .  A
N375        H407   1.040       .  S
N376        C383   1.351       .  A
N376        C384   1.349   1_455  A
N377        C382   1.354       .  A
N377        C381   1.352       .  A
N377        H408   1.041       .  S
N378        C385   1.348       .  A
N378        C386   1.349   1_455  A
C379        C387   1.387       .  A
C379        C395   1.412       .  A
C380        C396   1.413       .  A
C380        C388   1.388   1_545  A
C381        C389   1.387       .  A
C381        C398   1.412       .  A
C382        C397   1.412   1_565  A
C382        C390   1.386       .  A
C383        C395   1.410       .  A
C383        C391   1.385       .  A
C384        C398   1.410       .  A
C384        C392   1.387       .  A
C385        C393   1.387       .  A
C385        C396   1.408       .  A
C386        C394   1.386       .  A
C386        C397   1.408       .  A
C387        C388   1.374       .  A
C387        H399   1.082       .  S
C388        H400   1.082   1_565  S
C389        C390   1.374       .  A
C389        H401   1.082       .  S
C390        H402   1.082   1_565  S
C391        C392   1.373   1_455  A
C391        H403   1.082       .  S
C392        H404   1.082       .  S
C393        C394   1.372   1_455  A
C393        H405   1.082       .  S
C394        H406   1.082       .  S
C395       C2104   1.485       .  S
C396       C2132   1.480       .  S
C397       C2121   1.484       .  S
C398       C2090   1.481       .  S
C409        N410   1.365       .  A
C409        N414   1.358       .  A
C409       C2062   1.484       .  S
N410        C411   1.361       .  A
C411        N412   1.357       .  A
C411       C2076   1.482       .  S
N412        C413   1.357       .  A
C413        N414   1.355       .  A
C413       C2636   1.491       .  S
C415        N416   1.367       .  A
C415        N420   1.359       .  A
C415       C2051   1.482       .  S
N416        C417   1.363       .  A
C417        N418   1.356       .  A
C417       C2079   1.481       .  S
N418        C419   1.354       .  A
C419        N420   1.356       .  A
C419       C2751   1.492       .  S
C421        N422   1.363       .  A
C421        N426   1.357       .  A
C421       C2020   1.483       .  S
N422        C423   1.359       .  A
C423        N424   1.355       .  A
C423       C2034   1.473       .  S
N424        C425   1.353       .  A
C425        N426   1.354       .  A
C425       C2583   1.482       .  S
C427        N428   1.358       .  A
C427        N432   1.362       .  A
C427       C2009   1.475       .  S
N428        C429   1.355       .  A
C429        N430   1.354       .  A
C429       C2695   1.478       .  S
N430        C431   1.355       .  A
C431        N432   1.358       .  A
C431       C2037   1.471       .  S
C433        N434   1.356       .  A
C433        N438   1.361       .  A
C433       C1978   1.477       .  S
N434        C435   1.353       .  A
C435        N436   1.356       .  A
C435       C2471   1.489       .  S
N436        C437   1.359       .  A
C437        N438   1.359       .  A
C437       C1992   1.477       .  S
C439        N440   1.364       .  A
C439        N444   1.360       .  A
C439       C1964   1.477       .  S
N440        C441   1.360       .  A
C441        N442   1.354       .  A
C441       C1995   1.474       .  S
N442        C443   1.352       .  A
C443        N444   1.356       .  A
C443       C2527   1.479       .  S
C445        N446   1.359       .  A
C445        N450   1.365       .  A
C445       C1936   1.473       .  S
N446        C447   1.355       .  A
C447        N448   1.354       .  A
C447       C2569   1.483       .  S
N448        C449   1.355       .  A
C449        N450   1.362       .  A
C449       C1950   1.482       .  S
C451        N452   1.357       .  A
C451        N456   1.365       .  A
C451       C1922   1.478       .  S
N452        C453   1.354       .  A
C453        N454   1.355       .  A
C453       C2667   1.483       .  S
N454        C455   1.357       .  A
C455        N456   1.361       .  A
C455       C1953   1.483       .  S
C457        N458   1.357       .  A
C457        N462   1.362       .  A
C457       C1894   1.479       .  S
N458        C459   1.353       .  A
C459        N460   1.356       .  A
C459       C2611   1.483       .  S
N460        C461   1.359       .  A
C461        N462   1.360       .  A
C461       C1908   1.478       .  S
C463        N464   1.367       .  A
C463        N468   1.359       .  A
C463       C1880   1.480       .  S
N464        C465   1.363       .  A
C465        N466   1.355       .  A
C465       C1911   1.482       .  S
N466        C467   1.353       .  A
C467        N468   1.355       .  A
C467       C2734   1.485       .  S
C469        N470   1.358       .  A
C469        N474   1.365       .  A
C469       C1855   1.474       .  S
N470        C471   1.354       .  A
C471        N472   1.353       .  A
C471       C2555   1.484       .  S
N472        C473   1.354       .  A
C473        N474   1.360       .  A
C473       C1866   1.478       .  S
C475        N476   1.356       .  A
C475        N480   1.364       .  A
C475       C1841   1.472       .  S
N476        C477   1.352       .  A
C477        N478   1.354       .  A
C477       C2678   1.476       .  S
N478        C479   1.357       .  A
C479        N480   1.361       .  A
C479       C1869   1.478       .  S
C481        N482   1.363       .  A
C481        N486   1.359       .  A
C481       C1810   1.473       .  S
N482        C483   1.359       .  A
C483        N484   1.356       .  A
C483       C1824   1.474       .  S
N484        C485   1.355       .  A
C485        N486   1.356       .  A
C485       C2622   1.478       .  S
C487        N488   1.359       .  A
C487        N492   1.362       .  A
C487       C1796   1.470       .  S
N488        C489   1.357       .  A
C489        N490   1.355       .  A
C489       C2720   1.485       .  S
N490        C491   1.355       .  A
C491        N492   1.358       .  A
C491       C1827   1.474       .  S
C493        N494   1.362       .  A
C493        N498   1.360       .  A
C493       C1768   1.475       .  S
N494        C495   1.358       .  A
C495        N496   1.356       .  A
C495       C1782   1.477       .  S
N496        C497   1.354       .  A
C497        N498   1.356       .  A
C497       C2443   1.486       .  S
C499        N500   1.359       .  A
C499        N504   1.364       .  A
C499       C1757   1.476       .  S
N500        C501   1.355       .  A
C501        N502   1.352       .  A
C501       C2510   1.480       .  S
N502        C503   1.354       .  A
C503        N504   1.360       .  A
C503       C1785   1.473       .  S
C505        N506   1.358       .  A
C505        N510   1.364       .  A
C505       C1726   1.479       .  S
N506        C507   1.354       .  A
C507        N508   1.355       .  A
C507       C2454   1.476       .  S
N508        C509   1.356       .  A
C509        N510   1.361       .  A
C509       C1740   1.480       .  S
C511        N512   1.362       .  A
C511        N516   1.359       .  A
C511       C1715   1.474       .  S
N512        C513   1.360       .  A
C513        N514   1.356       .  A
C513       C1743   1.477       .  S
N514        C515   1.355       .  A
C515        N516   1.358       .  A
C515       C2499   1.492       .  S
C517        N518   1.366       .  A
C517        N522   1.359       .  A
C517       C1687   1.482       .  S
N518        C519   1.362       .  A
C519        N520   1.357       .  A
C519       C1698   1.482       .  S
N520        C521   1.356       .  A
C521        N522   1.356       .  A
C521       C2597   1.485       .  S
C523        N524   1.360       .  A
C523        N528   1.366       .  A
C523       C1670   1.482       .  S
N524        C525   1.356       .  A
C525        N526   1.355       .  A
C525       C2706   1.486       .  S
N526        C527   1.356       .  A
C527        N528   1.362       .  A
C527       C1701   1.480       .  S
C529        N530   1.364       .  A
C529        N534   1.357       .  A
C529       C1642   1.472       .  S
N530        C531   1.361       .  A
C531        N532   1.355       .  A
C531       C1656   1.477       .  S
N532        C533   1.355       .  A
C533        N534   1.355       .  A
C533       C2541   1.487       .  S
C535        N536   1.361       .  A
C535        N540   1.364       .  A
C535       C1631   1.484       .  S
N536        C537   1.358       .  A
C537        N538   1.353       .  A
C537       C2653   1.488       .  S
N538        C539   1.355       .  A
C539        N540   1.360       .  A
C539       C1659   1.481       .  S
C541        N542   1.366       .  A
C541        N546   1.361       .  A
C541       C1600   1.478       .  S
N542        C543   1.362       .  A
C543        N544   1.353       .  A
C543       C1614   1.479       .  S
N544        C545   1.353       .  A
C545        N546   1.355       .  A
C545       C2429   1.487       .  S
C547        N548   1.359       .  A
C547        N552   1.363       .  A
C547       C1589   1.478       .  S
N548        C549   1.357       .  A
C549        N550   1.356       .  A
C549       C2485   1.490       .  S
N550        C551   1.357       .  A
C551        N552   1.359       .  A
C551       C1617   1.481       .  S
C553        N554   1.353       .  A
C553        N558   1.365       .  A
C553       C1558   1.482       .  S
N554        C555   1.352       .  A
C555        N556   1.356       .  A
C555       C2303   1.480       .  S
N556        C557   1.357       .  A
C557        N558   1.363       .  A
C557       C1572   1.477       .  S
C559        N560   1.360       .  A
C559        N564   1.365       .  A
C559       C1547   1.491       .  S
N560        C561   1.357       .  A
C561        N562   1.355       .  A
C561       C2415   1.484       .  S
N562        C563   1.356       .  A
C563        N564   1.361       .  A
C563       C1575   1.476       .  S
C565        N566   1.357       .  A
C565        N570   1.362       .  A
C565       C1519   1.469       .  S
N566        C567   1.356       .  A
C567        N568   1.355       .  A
C567       C2247   1.490       .  S
N568        C569   1.357       .  A
C569        N570   1.360       .  A
C569       C1530   1.481       .  S
C571        N572   1.366       .  A
C571        N576   1.361       .  A
C571       C1505   1.477       .  S
N572        C573   1.361       .  A
C573        N574   1.353       .  A
C573       C1533   1.478       .  S
N574        C575   1.353       .  A
C575        N576   1.356       .  A
C575       C2356   1.482       .  S
C577        N578   1.364       .  A
C577        N582   1.357       .  A
C577       C1474   1.472       .  S
N578        C579   1.362       .  A
C579        N580   1.358       .  A
C579       C1488   1.487       .  S
N580        C581   1.355       .  A
C581        N582   1.352       .  A
C581       C2233   1.485       .  S
C583        N584   1.364       .  A
C583        N588   1.360       .  A
C583       C1460   1.479       .  S
N584        C585   1.361       .  A
C585        N586   1.356       .  A
C585       C1491   1.480       .  S
N586        C587   1.354       .  A
C587        N588   1.356       .  A
C587       C2328   1.480       .  S
C589        N590   1.358       .  A
C589        N594   1.364       .  A
C589       C1432   1.485       .  S
N590        C591   1.355       .  A
C591        N592   1.358       .  A
C591       C2219   1.488       .  S
N592        C593   1.359       .  A
C593        N594   1.361       .  A
C593       C1446   1.483       .  S
C595        N596   1.359       .  A
C595        N600   1.368       .  A
C595       C1421   1.483       .  S
N596        C597   1.355       .  A
C597        N598   1.354       .  A
C597       C2345   1.483       .  S
N598        C599   1.356       .  A
C599        N600   1.365       .  A
C599       C1449   1.481       .  S
C601        N602   1.365       .  A
C601        N606   1.360       .  A
C601       C1390   1.483       .  S
N602        C603   1.361       .  A
C603        N604   1.356       .  A
C603       C1404   1.482       .  S
N604        C605   1.355       .  A
C605        N606   1.358       .  A
C605       C2286   1.494       .  S
C607        N608   1.367       .  A
C607        N612   1.356       .  A
C607       C1376   1.484       .  S
N608        C609   1.366       .  A
C609        N610   1.359       .  A
C609       C1407   1.486       .  S
N610        C611   1.352       .  A
C611        N612   1.354       .  A
C611       C2387   1.490       .  S
C613        N614   1.365       .  A
C613        N618   1.359       .  A
C613       C1351   1.479       .  S
N614        C615   1.362       .  A
C615        N616   1.357       .  A
C615       C1362   1.482       .  S
N616        C617   1.355       .  A
C617        N618   1.356       .  A
C617       C2118   1.487       .  S
C619        N620   1.367       .  A
C619        N624   1.362       .  A
C619       C1334   1.487       .  S
N620        C621   1.362       .  A
C621        N622   1.353       .  A
C621       C1365   1.478       .  S
N622        C623   1.352       .  A
C623        N624   1.356       .  A
C623       C2163   1.473       .  S
C625        N626   1.362       .  A
C625        N630   1.359       .  A
C625       C1306   1.476       .  S
N626        C627   1.359       .  A
C627        N628   1.358       .  A
C627       C1320   1.479       .  S
N628        C629   1.356       .  A
C629        N630   1.355       .  A
C629       C2107   1.487       .  S
C631        N632   1.360       .  A
C631        N636   1.365       .  A
C631       C1292   1.476       .  S
N632        C633   1.356       .  A
C633        N634   1.352       .  A
C633       C2177   1.488       .  S
N634        C635   1.354       .  A
C635        N636   1.361       .  A
C635       C1323   1.478       .  S
C637        N638   1.359       .  A
C637        N642   1.369       .  A
C637       C1264   1.484       .  S
N638        C639   1.352       .  A
C639        N640   1.353       .  A
C639       C2261   1.491       .  S
N640        C641   1.354       .  A
C641        N642   1.366       .  A
C641       C1278   1.487       .  S
C643        N644   1.357       .  A
C643        N648   1.363       .  A
C643       C1250   1.479       .  S
N644        C645   1.357       .  A
C645        N646   1.358       .  A
C645       C2370   1.491       .  S
N646        C647   1.362       .  A
C647        N648   1.363       .  A
C647       C1281   1.485       .  S
C649        N650   1.364       .  A
C649        N654   1.361       .  A
C649       C1222   1.478       .  S
N650        C651   1.360       .  A
C651        N652   1.355       .  A
C651       C1236   1.481       .  S
N652        C653   1.354       .  A
C653        N654   1.359       .  A
C653       C2093   1.492       .  S
C655        N656   1.360       .  A
C655        N660   1.367       .  A
C655       C1208   1.481       .  S
N656        C657   1.355       .  A
C657        N658   1.352       .  A
C657       C2149   1.480       .  S
N658        C659   1.355       .  A
C659        N660   1.364       .  A
C659       C1239   1.482       .  S
C661        N662   1.364       .  A
C661        N666   1.360       .  A
C661       C1180   1.473       .  S
N662        C663   1.361       .  A
C663        N664   1.357       .  A
C663       C1194   1.486       .  S
N664        C665   1.355       .  A
C665        N666   1.358       .  A
C665       C2205   1.490       .  S
C667        N668   1.368       .  A
C667        N672   1.360       .  A
C667       C1169   1.484       .  S
N668        C669   1.363       .  A
C669        N670   1.354       .  A
C669       C1197   1.483       .  S
N670        C671   1.353       .  A
C671        N672   1.355       .  A
C671       C2317   1.493       .  S
O673       Mg675   2.156       .  S
O673       Mg681   2.164       .  S
O673        C708   1.236       .  S
C674        H713   1.081       .  S
C674        O687   1.236       .  S
C674        O711   1.271       .  A
Mg675       O704   2.158       .  S
Mg675       O719   2.296       .  S
Mg675       O715   2.294       .  S
Mg675       O686   2.293       .  S
O676       Mg718   2.148       .  S
O676       Mg701   2.146       .  S
O676        C697   1.235       .  S
O677        C708   1.270       .  A
O677       Mg701   2.300       .  S
C678       C2006   1.476       .  S
C678        O680   1.271       .  A
C678        O692   1.274       .  A
O679        C707   1.269       .  A
O679       Mg681   2.294       .  S
O680       Mg712   2.256       .  S
Mg681       O687   2.151       .  S
Mg681       O695   2.271       .  S
Mg681       O683   2.320       .  S
C682       C1295   1.478       .  S
C682        O720   1.272       .  A
C682        O688   1.272       .  A
O683        C690   1.277       .  A
H684        C697   1.081       .  S
C685        H710   1.081       .  S
C685        O699   1.236       .  S
C685        O700   1.270       .  A
O686        C709   1.269       .  A
O687       Mg701   2.150       .  S
O688       Mg718   2.292       .  S
C689       C1813   1.474       .  S
C689        O702   1.270       .  A
C689        O694   1.275       .  A
C690       C1183   1.491       .  S
C690        O717   1.271       .  A
Mg691       O698   2.148       .  S
Mg691       O699   2.157       .  S
Mg691       O692   2.285       .  S
Mg691       O693   2.302       .  S
Mg691       O720   2.281       .  S
O693        C697   1.270       .  A
O694       Mg701   2.310       .  S
O695        C714   1.274       .  A
O696        C716   1.276       .  A
O696       Mg712   2.309       .  S
O698       Mg712   2.165       .  S
O698        C709   1.235       .  S
O699       Mg718   2.142       .  S
O700       Mg712   2.297       .  S
Mg701       O717   2.262       .  S
O702       Mg718   2.253       .  S
H703        C708   1.081       .  S
O704       Mg712   2.137       .  S
O704        C707   1.236       .  S
H705        C707   1.081       .  S
H706        C709   1.081       .  S
O711       Mg718   2.304       .  S
C714       C1729   1.484       .  S
C714        O719   1.276       .  A
O715        C716   1.276       .  A
C716       C1152   1.496       .  S
O721       Mg723   2.159       .  S
O721       Mg729   2.169       .  S
O721        C756   1.236       .  S
C722        H761   1.081       .  S
C722        O735   1.234       .  S
C722        O759   1.268       .  A
Mg723       O752   2.160       .  S
Mg723       O767   2.301       .  S
Mg723       O763   2.286       .  S
Mg723       O734   2.295       .  S
O724       Mg766   2.159       .  S
O724       Mg749   2.139       .  S
O724        C745   1.235       .  S
O725        C756   1.270       .  A
O725       Mg749   2.301       .  S
C726       C1166   1.482       .  S
C726        O728   1.272       .  A
C726        O740   1.275       .  A
O727        C755   1.268       .  A
O727       Mg729   2.291       .  S
O728       Mg760   2.264       .  S
Mg729       O735   2.150       .  S
Mg729       O743   2.276       .  S
Mg729       O731   2.297       .  S
C730       C1981   1.473       .  S
C730        O768   1.271       .  A
C730        O736   1.273       .  A
O731        C738   1.275       .  A
H732        C745   1.081       .  S
C733        H758   1.081       .  S
C733        O747   1.234       .  S
C733        O748   1.267       .  A
O734        C757   1.269       .  A
O735       Mg749   2.167       .  S
O736       Mg766   2.284       .  S
C737       C1253   1.495       .  S
C737        O750   1.273       .  A
C737        O742   1.277       .  A
C738       C2023   1.471       .  S
C738        O765   1.272       .  A
Mg739       O746   2.137       .  S
Mg739       O747   2.168       .  S
Mg739       O740   2.305       .  S
Mg739       O741   2.294       .  S
Mg739       O768   2.246       .  S
O741        C745   1.269       .  A
O742       Mg749   2.326       .  S
O743        C762   1.275       .  A
O744        C764   1.273       .  A
O744       Mg760   2.280       .  S
O746       Mg760   2.161       .  S
O746        C757   1.235       .  S
O747       Mg766   2.142       .  S
O748       Mg760   2.288       .  S
Mg749       O765   2.255       .  S
O750       Mg766   2.261       .  S
H751        C756   1.081       .  S
O752       Mg760   2.139       .  S
O752        C755   1.234       .  S
H753        C755   1.081       .  S
H754        C757   1.081       .  S
O759       Mg766   2.294       .  S
C762       C1211   1.486       .  S
C762        O767   1.274       .  A
O763        C764   1.275       .  A
C764       C2065   1.485       .  S
O769       Mg771   2.159       .  S
O769       Mg777   2.150       .  S
O769        C804   1.236       .  S
C770        H809   1.081       .  S
C770        O783   1.234       .  S
C770        O807   1.268       .  A
Mg771       O800   2.151       .  S
Mg771       O815   2.296       .  S
Mg771       O811   2.285       .  S
Mg771       O782   2.299       .  S
O772       Mg814   2.165       .  S
O772       Mg797   2.148       .  S
O772        C793   1.236       .  S
O773        C804   1.271       .  A
O773       Mg797   2.305       .  S
C774       C1967   1.477       .  S
C774        O776   1.271       .  A
C774        O788   1.275       .  A
O775        C803   1.272       .  A
O775       Mg777   2.308       .  S
O776       Mg808   2.260       .  S
Mg777       O783   2.144       .  S
Mg777       O791   2.258       .  S
Mg777       O779   2.317       .  S
C778       C1379   1.485       .  S
C778        O816   1.272       .  A
C778        O784   1.275       .  A
O779        C786   1.276       .  A
H780        C793   1.081       .  S
C781        H806   1.081       .  S
C781        O795   1.235       .  S
C781        O796   1.269       .  A
O782        C805   1.270       .  A
O783       Mg797   2.153       .  S
O784       Mg814   2.308       .  S
C785       C1939   1.492       .  S
C785        O798   1.274       .  A
C785        O790   1.276       .  A
C786       C1225   1.482       .  S
C786        O813   1.272       .  A
Mg787       O794   2.153       .  S
Mg787       O795   2.158       .  S
Mg787       O788   2.308       .  S
Mg787       O789   2.297       .  S
Mg787       O816   2.262       .  S
O789        C793   1.270       .  A
O790       Mg797   2.308       .  S
O791        C810   1.271       .  A
O792        C812   1.273       .  A
O792       Mg808   2.304       .  S
O794       Mg808   2.157       .  S
O794        C805   1.236       .  S
O795       Mg814   2.151       .  S
O796       Mg808   2.300       .  S
Mg797       O813   2.266       .  S
O798       Mg814   2.270       .  S
H799        C804   1.081       .  S
O800       Mg808   2.144       .  S
O800        C803   1.237       .  S
H801        C803   1.081       .  S
H802        C805   1.081       .  S
O807       Mg814   2.294       .  S
C810       C1897   1.468       .  S
C810        O815   1.273       .  A
O811        C812   1.274       .  A
C812       C1418   1.492       .  S
O817       Mg819   2.145       .  S
O817       Mg825   2.165       .  S
O817        C852   1.235       .  S
C818        H857   1.081       .  S
C818        O831   1.236       .  S
C818        O855   1.270       .  A
Mg819       O848   2.157       .  S
Mg819       O863   2.287       .  S
Mg819       O859   2.274       .  S
Mg819       O830   2.296       .  S
O820       Mg862   2.155       .  S
O820       Mg845   2.142       .  S
O820        C841   1.235       .  S
O821        C852   1.268       .  A
O821       Mg845   2.292       .  S
C822       C1852   1.470       .  S
C822        O824   1.269       .  A
C822        O836   1.274       .  A
O823        C851   1.269       .  A
O823       Mg825   2.295       .  S
O824       Mg856   2.249       .  S
Mg825       O831   2.146       .  S
Mg825       O839   2.262       .  S
Mg825       O827   2.315       .  S
C826       C1337   1.475       .  S
C826        O864   1.271       .  A
C826        O832   1.275       .  A
O827        C834   1.277       .  A
H828        C841   1.081       .  S
C829        H854   1.081       .  S
C829        O843   1.236       .  S
C829        O844   1.271       .  A
O830        C853   1.269       .  A
O831       Mg845   2.160       .  S
O832       Mg862   2.313       .  S
C833       C2048   1.485       .  S
C833        O846   1.274       .  A
C833        O838   1.273       .  A
C834       C1463   1.491       .  S
C834        O861   1.271       .  A
Mg835       O842   2.151       .  S
Mg835       O843   2.151       .  S
Mg835       O836   2.295       .  S
Mg835       O837   2.301       .  S
Mg835       O864   2.266       .  S
O837        C841   1.270       .  A
O838       Mg845   2.289       .  S
O839        C858   1.272       .  A
O840        C860   1.275       .  A
O840       Mg856   2.304       .  S
O842       Mg856   2.159       .  S
O842        C853   1.235       .  S
O843       Mg862   2.152       .  S
O844       Mg856   2.304       .  S
Mg845       O861   2.254       .  S
O846       Mg862   2.278       .  S
H847        C852   1.081       .  S
O848       Mg856   2.134       .  S
O848        C851   1.235       .  S
H849        C851   1.081       .  S
H850        C853   1.081       .  S
O855       Mg862   2.298       .  S
C858       C1771   1.480       .  S
C858        O863   1.274       .  A
O859        C860   1.273       .  A
C860       C1267   1.486       .  S
C865        N866   1.365       .  A
C865        N870   1.357       .  A
C865       C1124   1.478       .  S
N866        C867   1.361       .  A
C867        N868   1.357       .  A
C867       C1138   1.480       .  S
N868        C869   1.355       .  A
C869        N870   1.354       .  A
C869       C2275   1.489       .  S
C871        N872   1.359       .  A
C871        N876   1.365       .  A
C871       C1155   1.483       .  S
N872        C873   1.358       .  A
C873        N874   1.357       .  A
C873       C2401   1.496       .  S
N874        C875   1.358       .  A
C875        N876   1.363       .  A
C875       C1141   1.484       .  S
O877       Mg879   2.145       .  S
O877       Mg885   2.152       .  S
O877        C912   1.234       .  S
C878        H917   1.081       .  S
C878        O891   1.236       .  S
C878        O915   1.271       .  A
Mg879       O908   2.159       .  S
Mg879       O923   2.292       .  S
Mg879       O919   2.261       .  S
Mg879       O890   2.291       .  S
O880       Mg922   2.153       .  S
O880       Mg905   2.149       .  S
O880        C901   1.235       .  S
O881        C912   1.269       .  A
O881       Mg905   2.298       .  S
C882       C1113   1.483       .  S
C882        O884   1.272       .  A
C882        O896   1.272       .  A
O883        C911   1.270       .  A
O883       Mg885   2.301       .  S
O884       Mg916   2.266       .  S
Mg885       O891   2.141       .  S
Mg885       O899   2.256       .  S
Mg885       O887   2.315       .  S
C886       C1799   1.479       .  S
C886        O924   1.270       .  A
C886        O892   1.274       .  A
O887        C894   1.275       .  A
H888        C901   1.081       .  S
C889        H914   1.081       .  S
C889        O903   1.235       .  S
C889        O904   1.268       .  A
O890        C913   1.268       .  A
O891       Mg905   2.150       .  S
O892       Mg922   2.297       .  S
C893       C1477   1.470       .  S
C893        O906   1.270       .  A
C893        O898   1.271       .  A
C894       C1603   1.477       .  S
C894        O921   1.270       .  A
Mg895       O902   2.130       .  S
Mg895       O903   2.157       .  S
Mg895       O896   2.290       .  S
Mg895       O897   2.300       .  S
Mg895       O924   2.248       .  S
O897        C901   1.269       .  A
O898       Mg905   2.279       .  S
O899        C918   1.271       .  A
O900        C920   1.271       .  A
O900       Mg916   2.282       .  S
O902       Mg916   2.160       .  S
O902        C913   1.235       .  S
O903       Mg922   2.144       .  S
O904       Mg916   2.294       .  S
Mg905       O921   2.260       .  S
O906       Mg922   2.261       .  S
H907        C912   1.081       .  S
O908       Mg916   2.145       .  S
O908        C911   1.235       .  S
H909        C911   1.081       .  S
H910        C913   1.081       .  S
O915       Mg922   2.304       .  S
C918       C1127   1.469       .  S
C918        O923   1.273       .  A
O919        C920   1.272       .  A
C920       C1838   1.482       .  S
O925       Mg927   2.141       .  S
O925       Mg933   2.156       .  S
O925        C960   1.235       .  S
C926        H965   1.081       .  S
C926        O939   1.235       .  S
C926        O963   1.270       .  A
Mg927       O956   2.163       .  S
Mg927       O971   2.295       .  S
Mg927       O967   2.251       .  S
Mg927       O938   2.287       .  S
O928       Mg970   2.160       .  S
O928       Mg953   2.154       .  S
O928        C949   1.236       .  S
O929        C960   1.270       .  A
O929       Mg953   2.300       .  S
C930       C1925   1.481       .  S
C930        O932   1.274       .  A
C930        O944   1.273       .  A
O931        C959   1.269       .  A
O931       Mg933   2.294       .  S
O932       Mg964   2.274       .  S
Mg933       O939   2.160       .  S
Mg933       O947   2.292       .  S
Mg933       O935   2.283       .  S
C934       C1544   1.479       .  S
C934        O972   1.271       .  A
C934        O940   1.274       .  A
O935        C942   1.274       .  A
H936        C949   1.081       .  S
C937        H962   1.081       .  S
C937        O951   1.235       .  S
C937        O952   1.268       .  A
O938        C961   1.268       .  A
O939       Mg953   2.170       .  S
O940       Mg970   2.302       .  S
C941       C1712   1.489       .  S
C941        O954   1.269       .  A
C941        O946   1.280       .  A
C942       C1435   1.482       .  S
C942        O969   1.275       .  A
Mg943       O950   2.133       .  S
Mg943       O951   2.156       .  S
Mg943       O944   2.279       .  S
Mg943       O945   2.295       .  S
Mg943       O972   2.269       .  S
O945        C949   1.270       .  A
O946       Mg953   2.335       .  S
O947        C966   1.275       .  A
O948        C968   1.275       .  A
O948       Mg964   2.294       .  S
O950       Mg964   2.164       .  S
O950        C961   1.235       .  S
O951       Mg970   2.126       .  S
O952       Mg964   2.289       .  S
Mg953       O969   2.284       .  S
O954       Mg970   2.236       .  S
H955        C960   1.081       .  S
O956       Mg964   2.146       .  S
O956        C959   1.235       .  S
H957        C959   1.081       .  S
H958        C961   1.081       .  S
O963       Mg970   2.300       .  S
C966       C1684   1.492       .  S
C966        O971   1.274       .  A
O967        C968   1.272       .  A
C968       C1309   1.477       .  S
O973       Mg975   2.148       .  S
O973       Mg981   2.157       .  S
O973       C1008   1.236       .  S
C974       H1013   1.081       .  S
C974        O987   1.235       .  S
C974       O1011   1.269       .  A
Mg975      O1004   2.160       .  S
Mg975      O1019   2.301       .  S
Mg975      O1015   2.271       .  S
Mg975       O986   2.298       .  S
O976      Mg1018   2.157       .  S
O976      Mg1001   2.146       .  S
O976        C997   1.235       .  S
O977       C1008   1.270       .  A
O977      Mg1001   2.299       .  S
C978       C1645   1.479       .  S
C978        O980   1.272       .  A
C978        O992   1.273       .  A
O979       C1007   1.271       .  A
O979       Mg981   2.302       .  S
O980      Mg1012   2.266       .  S
Mg981       O987   2.149       .  S
Mg981       O995   2.278       .  S
Mg981       O983   2.316       .  S
C982       C1393   1.491       .  S
C982       O1020   1.273       .  A
C982        O988   1.275       .  A
O983        C990   1.278       .  A
H984        C997   1.081       .  S
C985       H1010   1.081       .  S
C985        O999   1.235       .  S
C985       O1000   1.269       .  A
O986       C1009   1.269       .  A
O987      Mg1001   2.157       .  S
O988      Mg1018   2.305       .  S
C989       C1754   1.487       .  S
C989       O1002   1.271       .  A
C989        O994   1.276       .  A
C990       C1502   1.492       .  S
C990       O1017   1.273       .  A
Mg991       O998   2.150       .  S
Mg991       O999   2.154       .  S
Mg991       O992   2.292       .  S
Mg991       O993   2.295       .  S
Mg991      O1020   2.270       .  S
O993        C997   1.269       .  A
O994      Mg1001   2.315       .  S
O995       C1014   1.274       .  A
O996       C1016   1.273       .  A
O996      Mg1012   2.299       .  S
O998      Mg1012   2.155       .  S
O998       C1009   1.235       .  S
O999      Mg1018   2.136       .  S
O1000     Mg1012   2.298       .  S
Mg1001     O1017   2.263       .  S
O1002     Mg1018   2.247       .  S
H1003      C1008   1.081       .  S
O1004     Mg1012   2.152       .  S
O1004      C1007   1.236       .  S
H1005      C1007   1.081       .  S
H1006      C1009   1.081       .  S
O1011     Mg1018   2.297       .  S
C1014      C1883   1.488       .  S
C1014      O1019   1.275       .  A
O1015      C1016   1.273       .  A
C1016      C1348   1.491       .  S
C1021      N1022   1.358       .  A
C1021      N1026   1.362       .  A
C1021      C1082   1.475       .  S
N1022      C1023   1.354       .  A
C1023      N1024   1.354       .  A
C1023      C2135   1.477       .  S
N1024      C1025   1.355       .  A
C1025      N1026   1.360       .  A
C1025      C1096   1.474       .  S
C1027      N1028   1.359       .  A
C1027      N1032   1.364       .  A
C1027      C1110   1.480       .  S
N1028      C1029   1.357       .  A
C1029      N1030   1.353       .  A
C1029      C2191   1.485       .  S
N1030      C1031   1.354       .  A
C1031      N1032   1.360       .  A
C1031      C1099   1.471       .  S
O1033     Mg1035   2.127       .  S
O1033     Mg1041   2.161       .  S
O1033      C1068   1.235       .  S
C1034      H1073   1.081       .  S
C1034      O1047   1.235       .  S
C1034      O1071   1.270       .  A
Mg1035     O1064   2.162       .  S
Mg1035     O1079   2.286       .  S
Mg1035     O1075   2.245       .  S
Mg1035     O1046   2.291       .  S
O1036     Mg1078   2.161       .  S
O1036     Mg1061   2.157       .  S
O1036      C1057   1.235       .  S
O1037      C1068   1.268       .  A
O1037     Mg1061   2.289       .  S
C1038      C1673   1.482       .  S
C1038      O1040   1.273       .  A
C1038      O1052   1.274       .  A
O1039      C1067   1.268       .  A
O1039     Mg1041   2.286       .  S
O1040     Mg1072   2.270       .  S
Mg1041     O1047   2.149       .  S
Mg1041     O1055   2.283       .  S
Mg1041     O1043   2.272       .  S
C1042      C1516   1.480       .  S
C1042      O1080   1.271       .  A
C1042      O1048   1.277       .  A
O1043      C1050   1.272       .  A
H1044      C1057   1.081       .  S
C1045      H1070   1.081       .  S
C1045      O1059   1.235       .  S
C1045      O1060   1.269       .  A
O1046      C1069   1.269       .  A
O1047     Mg1061   2.165       .  S
O1048     Mg1078   2.315       .  S
C1049      C1586   1.480       .  S
C1049      O1062   1.272       .  A
C1049      O1054   1.276       .  A
C1050      C1561   1.481       .  S
C1050      O1077   1.276       .  A
Mg1051     O1058   2.135       .  S
Mg1051     O1059   2.154       .  S
Mg1051     O1052   2.297       .  S
Mg1051     O1053   2.303       .  S
Mg1051     O1080   2.252       .  S
O1053      C1057   1.270       .  A
O1054     Mg1061   2.298       .  S
O1055      C1074   1.274       .  A
O1056      C1076   1.275       .  A
O1056     Mg1072   2.297       .  S
O1058     Mg1072   2.163       .  S
O1058      C1069   1.235       .  S
O1059     Mg1078   2.146       .  S
O1060     Mg1072   2.297       .  S
Mg1061     O1077   2.286       .  S
O1062     Mg1078   2.262       .  S
H1063      C1068   1.081       .  S
O1064     Mg1072   2.140       .  S
O1064      C1067   1.235       .  S
H1065      C1067   1.081       .  S
H1066      C1069   1.081       .  S
O1071     Mg1078   2.298       .  S
C1074      C1628   1.484       .  S
C1074      O1079   1.274       .  A
O1075      C1076   1.270       .  A
C1076      C1085   1.481       .  S
C1081      C1082   1.404       .  A
C1081      C1086   1.404       .  A
C1081      H1088   1.084       .  S
C1082      C1083   1.412       .  A
C1083      C1084   1.397       .  A
C1083      N1090   1.432       .  S
C1084      C1085   1.406       .  A
C1084      H1089   1.084       .  S
C1085      C1086   1.414       .  A
C1086      N1087   1.438       .  S
N1087      H1091   1.046       .  S
N1087      H1092   1.046       .  S
N1090      H1093   1.046       .  S
N1090      H1094   1.045       .  S
C1095      C1096   1.401       .  A
C1095      C1100   1.396       .  A
C1095      H1102   1.085       .  S
C1096      C1097   1.419       .  A
C1097      C1098   1.406       .  A
C1097      N1104   1.439       .  S
C1098      C1099   1.403       .  A
C1098      H1103   1.084       .  S
C1099      C1100   1.415       .  A
C1100      N1101   1.440       .  S
N1101      H1105   1.045       .  S
N1101      H1106   1.043       .  S
N1104      H1107   1.041       .  S
N1104      H1108   1.046       .  S
C1109      C1110   1.402       .  A
C1109      C1114   1.408       .  A
C1109      H1116   1.084       .  S
C1110      C1111   1.417       .  A
C1111      C1112   1.397       .  A
C1111      N1118   1.432       .  S
C1112      C1113   1.402       .  A
C1112      H1117   1.084       .  S
C1113      C1114   1.418       .  A
C1114      N1115   1.438       .  S
N1115      H1119   1.046       .  S
N1115      H1120   1.045       .  S
N1118      H1121   1.043       .  S
N1118      H1122   1.046       .  S
C1123      C1124   1.406       .  A
C1123      C1128   1.400       .  A
C1123      H1130   1.084       .  S
C1124      C1125   1.411       .  A
C1125      C1126   1.404       .  A
C1125      N1132   1.437       .  S
C1126      C1127   1.403       .  A
C1126      H1131   1.084       .  S
C1127      C1128   1.414       .  A
C1128      N1129   1.440       .  S
N1129      H1133   1.046       .  S
N1129      H1134   1.043       .  S
N1132      H1135   1.045       .  S
N1132      H1136   1.046       .  S
C1137      C1138   1.401       .  A
C1137      C1142   1.396       .  A
C1137      H1144   1.084       .  S
C1138      C1139   1.412       .  A
C1139      C1140   1.415       .  A
C1139      N1146   1.437       .  S
C1140      C1141   1.406       .  A
C1140      H1145   1.084       .  S
C1141      C1142   1.415       .  A
C1142      N1143   1.433       .  S
N1143      H1147   1.042       .  S
N1143      H1148   1.045       .  S
N1146      H1149   1.046       .  S
N1146      H1150   1.046       .  S
C1151      C1152   1.411       .  A
C1151      C1156   1.404       .  A
C1151      H1158   1.084       .  S
C1152      C1153   1.413       .  A
C1153      C1154   1.406       .  A
C1153      N1160   1.432       .  S
C1154      C1155   1.404       .  A
C1154      H1159   1.084       .  S
C1155      C1156   1.412       .  A
C1156      N1157   1.433       .  S
N1157      H1161   1.046       .  S
N1157      H1162   1.045       .  S
N1160      H1163   1.046       .  S
N1160      H1164   1.046       .  S
C1165      C1166   1.400       .  A
C1165      C1170   1.396       .  A
C1165      H1172   1.084       .  S
C1166      C1167   1.415       .  A
C1167      C1168   1.410       .  A
C1167      N1174   1.438       .  S
C1168      C1169   1.404       .  A
C1168      H1173   1.084       .  S
C1169      C1170   1.419       .  A
C1170      N1171   1.432       .  S
N1171      H1175   1.042       .  S
N1171      H1176   1.045       .  S
N1174      H1177   1.046       .  S
N1174      H1178   1.046       .  S
C1179      C1180   1.398       .  A
C1179      C1184   1.399       .  A
C1179      H1186   1.084       .  S
C1180      C1181   1.408       .  A
C1181      C1182   1.409       .  A
C1181      N1188   1.438       .  S
C1182      C1183   1.408       .  A
C1182      H1187   1.084       .  S
C1183      C1184   1.422       .  A
C1184      N1185   1.433       .  S
N1185      H1189   1.045       .  S
N1185      H1190   1.045       .  S
N1188      H1191   1.046       .  S
N1188      H1192   1.046       .  S
C1193      C1194   1.403       .  A
C1193      C1198   1.400       .  A
C1193      H1200   1.084       .  S
C1194      C1195   1.417       .  A
C1195      C1196   1.409       .  A
C1195      N1202   1.432       .  S
C1196      C1197   1.405       .  A
C1196      H1201   1.084       .  S
C1197      C1198   1.412       .  A
C1198      N1199   1.439       .  S
N1199      H1203   1.046       .  S
N1199      H1204   1.045       .  S
N1202      H1205   1.045       .  S
N1202      H1206   1.045       .  S
C1207      C1208   1.402       .  A
C1207      C1212   1.403       .  A
C1207      H1214   1.084       .  S
C1208      C1209   1.414       .  A
C1209      C1210   1.404       .  A
C1209      N1216   1.438       .  S
C1210      C1211   1.403       .  A
C1210      H1215   1.084       .  S
C1211      C1212   1.421       .  A
C1212      N1213   1.433       .  S
N1213      H1217   1.045       .  S
N1213      H1218   1.045       .  S
N1216      H1219   1.045       .  S
N1216      H1220   1.045       .  S
C1221      C1222   1.404       .  A
C1221      C1226   1.401       .  A
C1221      H1228   1.084       .  S
C1222      C1223   1.410       .  A
C1223      C1224   1.406       .  A
C1223      N1230   1.438       .  S
C1224      C1225   1.406       .  A
C1224      H1229   1.084       .  S
C1225      C1226   1.415       .  A
C1226      N1227   1.432       .  S
N1227      H1231   1.045       .  S
N1227      H1232   1.046       .  S
N1230      H1233   1.046       .  S
N1230      H1234   1.046       .  S
C1235      C1236   1.406       .  A
C1235      C1240   1.414       .  A
C1235      H1242   1.083       .  S
C1236      C1237   1.411       .  A
C1237      C1238   1.400       .  A
C1237      N1244   1.439       .  S
C1238      C1239   1.403       .  A
C1238      H1243   1.084       .  S
C1239      C1240   1.412       .  A
C1240      N1241   1.437       .  S
N1241      H1245   1.046       .  S
N1241      H1246   1.046       .  S
N1244      H1247   1.045       .  S
N1244      H1248   1.046       .  S
C1249      C1250   1.402       .  A
C1249      C1254   1.407       .  A
C1249      H1256   1.084       .  S
C1250      C1251   1.410       .  A
C1251      C1252   1.406       .  A
C1251      N1258   1.438       .  S
C1252      C1253   1.408       .  A
C1252      H1257   1.083       .  S
C1253      C1254   1.416       .  A
C1254      N1255   1.432       .  S
N1255      H1259   1.046       .  S
N1255      H1260   1.046       .  S
N1258      H1261   1.046       .  S
N1258      H1262   1.046       .  S
C1263      C1264   1.406       .  A
C1263      C1268   1.403       .  A
C1263      H1270   1.084       .  S
C1264      C1265   1.409       .  A
C1265      C1266   1.408       .  A
C1265      N1272   1.432       .  S
C1266      C1267   1.409       .  A
C1266      H1271   1.084       .  S
C1267      C1268   1.409       .  A
C1268      N1269   1.432       .  S
N1269      H1273   1.046       .  S
N1269      H1274   1.046       .  S
N1272      H1275   1.045       .  S
N1272      H1276   1.046       .  S
C1277      C1278   1.406       .  A
C1277      C1282   1.409       .  A
C1277      H1284   1.084       .  S
C1278      C1279   1.419       .  A
C1279      C1280   1.396       .  A
C1279      N1286   1.434       .  S
C1280      C1281   1.400       .  A
C1280      H1285   1.084       .  S
C1281      C1282   1.417       .  A
C1282      N1283   1.432       .  S
N1283      H1287   1.045       .  S
N1283      H1288   1.046       .  S
N1286      H1289   1.046       .  S
N1286      H1290   1.043       .  S
C1291      C1292   1.403       .  A
C1291      C1296   1.397       .  A
C1291      H1298   1.084       .  S
C1292      C1293   1.410       .  A
C1293      C1294   1.409       .  A
C1293      N1300   1.437       .  S
C1294      C1295   1.406       .  A
C1294      H1299   1.084       .  S
C1295      C1296   1.413       .  A
C1296      N1297   1.433       .  S
N1297      H1301   1.045       .  S
N1297      H1302   1.046       .  S
N1300      H1303   1.046       .  S
N1300      H1304   1.046       .  S
C1305      C1306   1.404       .  A
C1305      C1310   1.402       .  A
C1305      H1312   1.084       .  S
C1306      C1307   1.408       .  A
C1307      C1308   1.403       .  A
C1307      N1314   1.432       .  S
C1308      C1309   1.406       .  A
C1308      H1313   1.084       .  S
C1309      C1310   1.411       .  A
C1310      N1311   1.438       .  S
N1311      H1315   1.046       .  S
N1311      H1316   1.045       .  S
N1314      H1317   1.046       .  S
N1314      H1318   1.046       .  S
C1319      C1320   1.401       .  A
C1319      C1324   1.399       .  A
C1319      H1326   1.084       .  S
C1320      C1321   1.416       .  A
C1321      C1322   1.406       .  A
C1321      N1328   1.432       .  S
C1322      C1323   1.404       .  A
C1322      H1327   1.084       .  S
C1323      C1324   1.412       .  A
C1324      N1325   1.438       .  S
N1325      H1329   1.046       .  S
N1325      H1330   1.045       .  S
N1328      H1331   1.045       .  S
N1328      H1332   1.045       .  S
C1333      C1334   1.408       .  A
C1333      C1338   1.399       .  A
C1333      H1340   1.084       .  S
C1334      C1335   1.414       .  A
C1335      C1336   1.408       .  A
C1335      N1342   1.438       .  S
C1336      C1337   1.403       .  A
C1336      H1341   1.084       .  S
C1337      C1338   1.409       .  A
C1338      N1339   1.433       .  S
N1339      H1343   1.045       .  S
N1339      H1344   1.046       .  S
N1342      H1345   1.046       .  S
N1342      H1346   1.046       .  S
C1347      C1348   1.406       .  A
C1347      C1352   1.405       .  A
C1347      H1354   1.083       .  S
C1348      C1349   1.423       .  A
C1349      C1350   1.401       .  A
C1349      N1356   1.432       .  S
C1350      C1351   1.400       .  A
C1350      H1355   1.084       .  S
C1351      C1352   1.411       .  A
C1352      N1353   1.438       .  S
N1353      H1357   1.046       .  S
N1353      H1358   1.046       .  S
N1356      H1359   1.045       .  S
N1356      H1360   1.044       .  S
C1361      C1362   1.403       .  A
C1361      C1366   1.395       .  A
C1361      H1368   1.084       .  S
C1362      C1363   1.416       .  A
C1363      C1364   1.407       .  A
C1363      N1370   1.432       .  S
C1364      C1365   1.405       .  A
C1364      H1369   1.084       .  S
C1365      C1366   1.415       .  A
C1366      N1367   1.434       .  S
N1367      H1371   1.044       .  S
N1367      H1372   1.045       .  S
N1370      H1373   1.045       .  S
N1370      H1374   1.045       .  S
C1375      C1376   1.403       .  A
C1375      C1380   1.411       .  A
C1375      H1382   1.084       .  S
C1376      C1377   1.413       .  A
C1377      C1378   1.400       .  A
C1377      N1384   1.433       .  S
C1378      C1379   1.401       .  A
C1378      H1383   1.084       .  S
C1379      C1380   1.418       .  A
C1380      N1381   1.438       .  S
N1381      H1385   1.046       .  S
N1381      H1386   1.046       .  S
N1384      H1387   1.046       .  S
N1384      H1388   1.046       .  S
C1389      C1390   1.402       .  A
C1389      C1394   1.408       .  A
C1389      H1396   1.084       .  S
C1390      C1391   1.410       .  A
C1391      C1392   1.404       .  A
C1391      N1398   1.433       .  S
C1392      C1393   1.406       .  A
C1392      H1397   1.084       .  S
C1393      C1394   1.419       .  A
C1394      N1395   1.438       .  S
N1395      H1399   1.046       .  S
N1395      H1400   1.046       .  S
N1398      H1401   1.046       .  S
N1398      H1402   1.046       .  S
C1403      C1404   1.406       .  A
C1403      C1408   1.408       .  A
C1403      H1410   1.084       .  S
C1404      C1405   1.414       .  A
C1405      C1406   1.395       .  A
C1405      N1412   1.434       .  S
C1406      C1407   1.404       .  A
C1406      H1411   1.084       .  S
C1407      C1408   1.416       .  A
C1408      N1409   1.432       .  S
N1409      H1413   1.045       .  S
N1409      H1414   1.045       .  S
N1412      H1415   1.045       .  S
N1412      H1416   1.042       .  S
C1417      C1418   1.405       .  A
C1417      C1422   1.408       .  A
C1417      H1424   1.084       .  S
C1418      C1419   1.422       .  A
C1419      C1420   1.403       .  A
C1419      N1426   1.433       .  S
C1420      C1421   1.400       .  A
C1420      H1425   1.084       .  S
C1421      C1422   1.414       .  A
C1422      N1423   1.438       .  S
N1423      H1427   1.046       .  S
N1423      H1428   1.046       .  S
N1426      H1429   1.045       .  S
N1426      H1430   1.045       .  S
C1431      C1432   1.408       .  A
C1431      C1436   1.399       .  A
C1431      H1438   1.084       .  S
C1432      C1433   1.412       .  A
C1433      C1434   1.406       .  A
C1433      N1440   1.438       .  S
C1434      C1435   1.407       .  A
C1434      H1439   1.084       .  S
C1435      C1436   1.412       .  A
C1436      N1437   1.432       .  S
N1437      H1441   1.046       .  S
N1437      H1442   1.045       .  S
N1440      H1443   1.046       .  S
N1440      H1444   1.046       .  S
C1445      C1446   1.401       .  A
C1445      C1450   1.400       .  A
C1445      H1452   1.084       .  S
C1446      C1447   1.415       .  A
C1447      C1448   1.415       .  A
C1447      N1454   1.437       .  S
C1448      C1449   1.405       .  A
C1448      H1453   1.083       .  S
C1449      C1450   1.409       .  A
C1450      N1451   1.433       .  S
N1451      H1455   1.046       .  S
N1451      H1456   1.045       .  S
N1454      H1457   1.045       .  S
N1454      H1458   1.046       .  S
C1459      C1460   1.402       .  A
C1459      C1464   1.402       .  A
C1459      H1466   1.084       .  S
C1460      C1461   1.411       .  A
C1461      C1462   1.409       .  A
C1461      N1468   1.438       .  S
C1462      C1463   1.409       .  A
C1462      H1467   1.083       .  S
C1463      C1464   1.414       .  A
C1464      N1465   1.433       .  S
N1465      H1469   1.046       .  S
N1465      H1470   1.046       .  S
N1468      H1471   1.045       .  S
N1468      H1472   1.046       .  S
C1473      C1474   1.404       .  A
C1473      C1478   1.403       .  A
C1473      H1480   1.084       .  S
C1474      C1475   1.412       .  A
C1475      C1476   1.399       .  A
C1475      N1482   1.432       .  S
C1476      C1477   1.403       .  A
C1476      H1481   1.084       .  S
C1477      C1478   1.409       .  A
C1478      N1479   1.438       .  S
N1479      H1483   1.046       .  S
N1479      H1484   1.046       .  S
N1482      H1485   1.045       .  S
N1482      H1486   1.044       .  S
C1487      C1488   1.404       .  A
C1487      C1492   1.400       .  A
C1487      H1494   1.084       .  S
C1488      C1489   1.418       .  A
C1489      C1490   1.407       .  A
C1489      N1496   1.431       .  S
C1490      C1491   1.404       .  A
C1490      H1495   1.084       .  S
C1491      C1492   1.410       .  A
C1492      N1493   1.439       .  S
N1493      H1497   1.046       .  S
N1493      H1498   1.045       .  S
N1496      H1499   1.045       .  S
N1496      H1500   1.045       .  S
C1501      C1502   1.409       .  A
C1501      C1506   1.408       .  A
C1501      H1508   1.083       .  S
C1502      C1503   1.418       .  A
C1503      C1504   1.406       .  A
C1503      N1510   1.438       .  S
C1504      C1505   1.401       .  A
C1504      H1509   1.084       .  S
C1505      C1506   1.409       .  A
C1506      N1507   1.438       .  S
N1507      H1511   1.046       .  S
N1507      H1512   1.046       .  S
N1510      H1513   1.046       .  S
N1510      H1514   1.045       .  S
C1515      C1516   1.404       .  A
C1515      C1520   1.398       .  A
C1515      H1522   1.084       .  S
C1516      C1517   1.417       .  A
C1517      C1518   1.406       .  A
C1517      N1524   1.438       .  S
C1518      C1519   1.399       .  A
C1518      H1523   1.084       .  S
C1519      C1520   1.411       .  A
C1520      N1521   1.433       .  S
N1521      H1525   1.045       .  S
N1521      H1526   1.046       .  S
N1524      H1527   1.046       .  S
N1524      H1528   1.046       .  S
C1529      C1530   1.406       .  A
C1529      C1534   1.413       .  A
C1529      H1536   1.083       .  S
C1530      C1531   1.411       .  A
C1531      C1532   1.400       .  A
C1531      N1538   1.438       .  S
C1532      C1533   1.402       .  A
C1532      H1537   1.084       .  S
C1533      C1534   1.411       .  A
C1534      N1535   1.437       .  S
N1535      H1539   1.046       .  S
N1535      H1540   1.046       .  S
N1538      H1541   1.046       .  S
N1538      H1542   1.046       .  S
C1543      C1544   1.404       .  A
C1543      C1548   1.408       .  A
C1543      H1550   1.084       .  S
C1544      C1545   1.411       .  A
C1545      C1546   1.400       .  A
C1545      N1552   1.433       .  S
C1546      C1547   1.410       .  A
C1546      H1551   1.084       .  S
C1547      C1548   1.415       .  A
C1548      N1549   1.438       .  S
N1549      H1553   1.046       .  S
N1549      H1554   1.046       .  S
N1552      H1555   1.046       .  S
N1552      H1556   1.045       .  S
C1557      C1558   1.401       .  A
C1557      C1562   1.405       .  A
C1557      H1564   1.084       .  S
C1558      C1559   1.421       .  A
C1559      C1560   1.397       .  A
C1559      N1566   1.433       .  S
C1560      C1561   1.399       .  A
C1560      H1565   1.084       .  S
C1561      C1562   1.417       .  A
C1562      N1563   1.438       .  S
N1563      H1567   1.046       .  S
N1563      H1568   1.046       .  S
N1566      H1569   1.046       .  S
N1566      H1570   1.044       .  S
C1571      C1572   1.403       .  A
C1571      C1576   1.398       .  A
C1571      H1578   1.084       .  S
C1572      C1573   1.420       .  A
C1573      C1574   1.407       .  A
C1573      N1580   1.438       .  S
C1574      C1575   1.402       .  A
C1574      H1579   1.084       .  S
C1575      C1576   1.412       .  A
C1576      N1577   1.433       .  S
N1577      H1581   1.044       .  S
N1577      H1582   1.046       .  S
N1580      H1583   1.042       .  S
N1580      H1584   1.045       .  S
C1585      C1586   1.405       .  A
C1585      C1590   1.401       .  A
C1585      H1592   1.084       .  S
C1586      C1587   1.412       .  A
C1587      C1588   1.406       .  A
C1587      N1594   1.438       .  S
C1588      C1589   1.405       .  A
C1588      H1593   1.084       .  S
C1589      C1590   1.408       .  A
C1590      N1591   1.432       .  S
N1591      H1595   1.046       .  S
N1591      H1596   1.046       .  S
N1594      H1597   1.046       .  S
N1594      H1598   1.046       .  S
C1599      C1600   1.402       .  A
C1599      C1604   1.401       .  A
C1599      H1606   1.084       .  S
C1600      C1601   1.413       .  A
C1601      C1602   1.406       .  A
C1601      N1608   1.438       .  S
C1602      C1603   1.401       .  A
C1602      H1607   1.084       .  S
C1603      C1604   1.416       .  A
C1604      N1605   1.433       .  S
N1605      H1609   1.045       .  S
N1605      H1610   1.046       .  S
N1608      H1611   1.046       .  S
N1608      H1612   1.046       .  S
C1613      C1614   1.404       .  A
C1613      C1618   1.414   1_556  A
C1613      H1620   1.083       .  S
C1614      C1615   1.409       .  A
C1615      C1616   1.396   1_556  A
C1615      N1622   1.433       .  S
C1616      C1617   1.401       .  A
C1616      H1621   1.084       .  S
C1617      C1618   1.415       .  A
C1618      N1619   1.437       .  S
N1619      H1623   1.046       .  S
N1619      H1624   1.045       .  S
N1622      H1625   1.046       .  S
N1622      H1626   1.046       .  S
C1627      C1628   1.406       .  A
C1627      C1632   1.398       .  A
C1627      H1634   1.084       .  S
C1628      C1629   1.411       .  A
C1629      C1630   1.409       .  A
C1629      N1636   1.438       .  S
C1630      C1631   1.408       .  A
C1630      H1635   1.084       .  S
C1631      C1632   1.414       .  A
C1632      N1633   1.433       .  S
N1633      H1637   1.045       .  S
N1633      H1638   1.046       .  S
N1636      H1639   1.046       .  S
N1636      H1640   1.046       .  S
C1641      C1642   1.400       .  A
C1641      C1646   1.406       .  A
C1641      H1648   1.084       .  S
C1642      C1643   1.413       .  A
C1643      C1644   1.398       .  A
C1643      N1650   1.433       .  S
C1644      C1645   1.404       .  A
C1644      H1649   1.084       .  S
C1645      C1646   1.415       .  A
C1646      N1647   1.438       .  S
N1647      H1651   1.046       .  S
N1647      H1652   1.046       .  S
N1650      H1653   1.046       .  S
N1650      H1654   1.044       .  S
C1655      C1656   1.405       .  A
C1655      C1660   1.406   1_655  A
C1655      H1662   1.084       .  S
C1656      C1657   1.414       .  A
C1657      C1658   1.394   1_655  A
C1657      N1664   1.434       .  S
C1658      C1659   1.403       .  A
C1658      H1663   1.084       .  S
C1659      C1660   1.416       .  A
C1660      N1661   1.432       .  S
N1661      H1665   1.045       .  S
N1661      H1666   1.045       .  S
N1664      H1667   1.046       .  S
N1664      H1668   1.043       .  S
C1669      C1670   1.406       .  A
C1669      C1674   1.404       .  A
C1669      H1676   1.084       .  S
C1670      C1671   1.410       .  A
C1671      C1672   1.408       .  A
C1671      N1678   1.438       .  S
C1672      C1673   1.407       .  A
C1672      H1677   1.084       .  S
C1673      C1674   1.408       .  A
C1674      N1675   1.432       .  S
N1675      H1679   1.046       .  S
N1675      H1680   1.046       .  S
N1678      H1681   1.046       .  S
N1678      H1682   1.046       .  S
C1683      C1684   1.405       .  A
C1683      C1688   1.405       .  A
C1683      H1690   1.084       .  S
C1684      C1685   1.421       .  A
C1685      C1686   1.408       .  A
C1685      N1692   1.438       .  S
C1686      C1687   1.400       .  A
C1686      H1691   1.084       .  S
C1687      C1688   1.410       .  A
C1688      N1689   1.432       .  S
N1689      H1693   1.046       .  S
N1689      H1694   1.046       .  S
N1692      H1695   1.046       .  S
N1692      H1696   1.046       .  S
C1697      C1698   1.406       .  A
C1697      C1702   1.414       .  A
C1697      H1704   1.083       .  S
C1698      C1699   1.410       .  A
C1699      C1700   1.402       .  A
C1699      N1706   1.438       .  S
C1700      C1701   1.402   1_565  A
C1700      H1705   1.084   1_565  S
C1701      C1702   1.412   1_545  A
C1702      N1703   1.437   1_565  S
N1703      H1707   1.046   1_545  S
N1703      H1708   1.046       .  S
N1706      H1709   1.046       .  S
N1706      H1710   1.046       .  S
C1711      C1712   1.407       .  A
C1711      C1716   1.401       .  A
C1711      H1718   1.084       .  S
C1712      C1713   1.419       .  A
C1713      C1714   1.405       .  A
C1713      N1720   1.439       .  S
C1714      C1715   1.399       .  A
C1714      H1719   1.084       .  S
C1715      C1716   1.410       .  A
C1716      N1717   1.432       .  S
N1717      H1721   1.045       .  S
N1717      H1722   1.046       .  S
N1720      H1723   1.045       .  S
N1720      H1724   1.046       .  S
C1725      C1726   1.405       .  A
C1725      C1730   1.402       .  A
C1725      H1732   1.084       .  S
C1726      C1727   1.410       .  A
C1727      C1728   1.406       .  A
C1727      N1734   1.438       .  S
C1728      C1729   1.407       .  A
C1728      H1733   1.084       .  S
C1729      C1730   1.410       .  A
C1730      N1731   1.433       .  S
N1731      H1735   1.046       .  S
N1731      H1736   1.046       .  S
N1734      H1737   1.046       .  S
N1734      H1738   1.046       .  S
C1739      C1740   1.404       .  A
C1739      C1744   1.403   1_556  A
C1739      H1746   1.084       .  S
C1740      C1741   1.415       .  A
C1741      C1742   1.403   1_556  A
C1741      N1748   1.432       .  S
C1742      C1743   1.404       .  A
C1742      H1747   1.084       .  S
C1743      C1744   1.411       .  A
C1744      N1745   1.438       .  S
N1745      H1749   1.046       .  S
N1745      H1750   1.046       .  S
N1748      H1751   1.045       .  S
N1748      H1752   1.046       .  S
C1753      C1754   1.406       .  A
C1753      C1758   1.399       .  A
C1753      H1760   1.084       .  S
C1754      C1755   1.418       .  A
C1755      C1756   1.408       .  A
C1755      N1762   1.438       .  S
C1756      C1757   1.402       .  A
C1756      H1761   1.084       .  S
C1757      C1758   1.407       .  A
C1758      N1759   1.433       .  S
N1759      H1763   1.046       .  S
N1759      H1764   1.046       .  S
N1762      H1765   1.046       .  S
N1762      H1766   1.046       .  S
C1767      C1768   1.403       .  A
C1767      C1772   1.397       .  A
C1767      H1774   1.084       .  S
C1768      C1769   1.409       .  A
C1769      C1770   1.405       .  A
C1769      N1776   1.438       .  S
C1770      C1771   1.407       .  A
C1770      H1775   1.084       .  S
C1771      C1772   1.415       .  A
C1772      N1773   1.433       .  S
N1773      H1777   1.045       .  S
N1773      H1778   1.046       .  S
N1776      H1779   1.046       .  S
N1776      H1780   1.046       .  S
C1781      C1782   1.402       .  A
C1781      C1786   1.395   1_556  A
C1781      H1788   1.084       .  S
C1782      C1783   1.413       .  A
C1783      C1784   1.413   1_556  A
C1783      N1790   1.437       .  S
C1784      C1785   1.405       .  A
C1784      H1789   1.084       .  S
C1785      C1786   1.406       .  A
C1786      N1787   1.433       .  S
N1787      H1791   1.046       .  S
N1787      H1792   1.046       .  S
N1790      H1793   1.045       .  S
N1790      H1794   1.046       .  S
C1795      C1796   1.401       .  A
C1795      C1800   1.403       .  A
C1795      H1802   1.084       .  S
C1796      C1797   1.411       .  A
C1797      C1798   1.397       .  A
C1797      N1804   1.433       .  S
C1798      C1799   1.406       .  A
C1798      H1803   1.084       .  S
C1799      C1800   1.411       .  A
C1800      N1801   1.433       .  S
N1801      H1805   1.045       .  S
N1801      H1806   1.046       .  S
N1804      H1807   1.045       .  S
N1804      H1808   1.046       .  S
C1809      C1810   1.404       .  A
C1809      C1814   1.403       .  A
C1809      H1816   1.084       .  S
C1810      C1811   1.407       .  A
C1811      C1812   1.403       .  A
C1811      N1818   1.432       .  S
C1812      C1813   1.405       .  A
C1812      H1817   1.084       .  S
C1813      C1814   1.407       .  A
C1814      N1815   1.432       .  S
N1815      H1819   1.045       .  S
N1815      H1820   1.046       .  S
N1818      H1821   1.045       .  S
N1818      H1822   1.046       .  S
C1823      C1824   1.401       .  A
C1823      C1828   1.395       .  A
C1823      H1830   1.084       .  S
C1824      C1825   1.414       .  A
C1825      C1826   1.404       .  A
C1825      N1832   1.432       .  S
C1826      C1827   1.404   1_565  A
C1826      H1831   1.084       .  S
C1827      C1828   1.413   1_545  A
C1828      N1829   1.433   1_565  S
N1829      H1833   1.044       .  S
N1829      H1834   1.046       .  S
N1832      H1835   1.045       .  S
N1832      H1836   1.045       .  S
C1837      C1838   1.403       .  A
C1837      C1842   1.402       .  A
C1837      H1844   1.084       .  S
C1838      C1839   1.421       .  A
C1839      C1840   1.399       .  A
C1839      N1846   1.433       .  S
C1840      C1841   1.399       .  A
C1840      H1845   1.084       .  S
C1841      C1842   1.411       .  A
C1842      N1843   1.438       .  S
N1843      H1847   1.046       .  S
N1843      H1848   1.046       .  S
N1846      H1849   1.045       .  S
N1846      H1850   1.045       .  S
C1851      C1852   1.400       .  A
C1851      C1856   1.403       .  A
C1851      H1858   1.084       .  S
C1852      C1853   1.414       .  A
C1853      C1854   1.398       .  A
C1853      N1860   1.433       .  S
C1854      C1855   1.402       .  A
C1854      H1859   1.084       .  S
C1855      C1856   1.413       .  A
C1856      N1857   1.438       .  S
N1857      H1861   1.046       .  S
N1857      H1862   1.045       .  S
N1860      H1863   1.046       .  S
N1860      H1864   1.045       .  S
C1865      C1866   1.406       .  A
C1865      C1870   1.414   1_655  A
C1865      H1872   1.084       .  S
C1866      C1867   1.414       .  A
C1867      C1868   1.392   1_655  A
C1867      N1874   1.434       .  S
C1868      C1869   1.401       .  A
C1868      H1873   1.084       .  S
C1869      C1870   1.412       .  A
C1870      N1871   1.437       .  S
N1871      H1875   1.046       .  S
N1871      H1876   1.045       .  S
N1874      H1877   1.046       .  S
N1874      H1878   1.043       .  S
C1879      C1880   1.401       .  A
C1879      C1884   1.405       .  A
C1879      H1886   1.084       .  S
C1880      C1881   1.411       .  A
C1881      C1882   1.404       .  A
C1881      N1888   1.433       .  S
C1882      C1883   1.405       .  A
C1882      H1887   1.084       .  S
C1883      C1884   1.416       .  A
C1884      N1885   1.433       .  S
N1885      H1889   1.046       .  S
N1885      H1890   1.046       .  S
N1888      H1891   1.046       .  S
N1888      H1892   1.046       .  S
C1893      C1894   1.407       .  A
C1893      C1898   1.403       .  A
C1893      H1900   1.084       .  S
C1894      C1895   1.413       .  A
C1895      C1896   1.405       .  A
C1895      N1902   1.438       .  S
C1896      C1897   1.401       .  A
C1896      H1901   1.084       .  S
C1897      C1898   1.406       .  A
C1898      N1899   1.438       .  S
N1899      H1903   1.046       .  S
N1899      H1904   1.046       .  S
N1902      H1905   1.045       .  S
N1902      H1906   1.046       .  S
C1907      C1908   1.406       .  A
C1907      C1912   1.414       .  A
C1907      H1914   1.084       .  S
C1908      C1909   1.406       .  A
C1909      C1910   1.397       .  A
C1909      N1916   1.433       .  S
C1910      C1911   1.404   1_565  A
C1910      H1915   1.084   1_565  S
C1911      C1912   1.413   1_545  A
C1912      N1913   1.437   1_565  S
N1913      H1917   1.046   1_545  S
N1913      H1918   1.045       .  S
N1916      H1919   1.046       .  S
N1916      H1920   1.046       .  S
C1921      C1922   1.400       .  A
C1921      C1926   1.401       .  A
C1921      H1928   1.084       .  S
C1922      C1923   1.412       .  A
C1923      C1924   1.403       .  A
C1923      N1930   1.433       .  S
C1924      C1925   1.403       .  A
C1924      H1929   1.084       .  S
C1925      C1926   1.415       .  A
C1926      N1927   1.433       .  S
N1927      H1931   1.045       .  S
N1927      H1932   1.046       .  S
N1930      H1933   1.046       .  S
N1930      H1934   1.046       .  S
C1935      C1936   1.400       .  A
C1935      C1940   1.405       .  A
C1935      H1942   1.084       .  S
C1936      C1937   1.416       .  A
C1937      C1938   1.402       .  A
C1937      N1944   1.440       .  S
C1938      C1939   1.407       .  A
C1938      H1943   1.084       .  S
C1939      C1940   1.417       .  A
C1940      N1941   1.433       .  S
N1941      H1945   1.046       .  S
N1941      H1946   1.046       .  S
N1944      H1947   1.043       .  S
N1944      H1948   1.046       .  S
C1949      C1950   1.406       .  A
C1949      C1954   1.414   1_655  A
C1949      H1956   1.084       .  S
C1950      C1951   1.415       .  A
C1951      C1952   1.393   1_655  A
C1951      N1958   1.434       .  S
C1952      C1953   1.402       .  A
C1952      H1957   1.084       .  S
C1953      C1954   1.414       .  A
C1954      N1955   1.437       .  S
N1955      H1959   1.046       .  S
N1955      H1960   1.045       .  S
N1958      H1961   1.045       .  S
N1958      H1962   1.043       .  S
C1963      C1964   1.405       .  A
C1963      C1968   1.405       .  A
C1963      H1970   1.084       .  S
C1964      C1965   1.411       .  A
C1965      C1966   1.407       .  A
C1965      N1972   1.438       .  S
C1966      C1967   1.404       .  A
C1966      H1971   1.084       .  S
C1967      C1968   1.409       .  A
C1968      N1969   1.438       .  S
N1969      H1973   1.046       .  S
N1969      H1974   1.046       .  S
N1972      H1975   1.045       .  S
N1972      H1976   1.046       .  S
C1977      C1978   1.406       .  A
C1977      C1982   1.400       .  A
C1977      H1984   1.084       .  S
C1978      C1979   1.412       .  A
C1979      C1980   1.405       .  A
C1979      N1986   1.438       .  S
C1980      C1981   1.405       .  A
C1980      H1985   1.084       .  S
C1981      C1982   1.407       .  A
C1982      N1983   1.438       .  S
N1983      H1987   1.046       .  S
N1983      H1988   1.046       .  S
N1986      H1989   1.045       .  S
N1986      H1990   1.046       .  S
C1991      C1992   1.405       .  A
C1991      C1996   1.404   1_556  A
C1991      H1998   1.084       .  S
C1992      C1993   1.410       .  A
C1993      C1994   1.401   1_556  A
C1993      N2000   1.438       .  S
C1994      C1995   1.401       .  A
C1994      H1999   1.084       .  S
C1995      C1996   1.413       .  A
C1996      N1997   1.432       .  S
N1997      H2001   1.046       .  S
N1997      H2002   1.045       .  S
N2000      H2003   1.046       .  S
N2000      H2004   1.046       .  S
C2005      C2006   1.405       .  A
C2005      C2010   1.399       .  A
C2005      H2012   1.084       .  S
C2006      C2007   1.411       .  A
C2007      C2008   1.405       .  A
C2007      N2014   1.438       .  S
C2008      C2009   1.405       .  A
C2008      H2013   1.084       .  S
C2009      C2010   1.407       .  A
C2010      N2011   1.433       .  S
N2011      H2015   1.046       .  S
N2011      H2016   1.046       .  S
N2014      H2017   1.046       .  S
N2014      H2018   1.046       .  S
C2019      C2020   1.404       .  A
C2019      C2024   1.404       .  A
C2019      H2026   1.083       .  S
C2020      C2021   1.418       .  A
C2021      C2022   1.403       .  A
C2021      N2028   1.438       .  S
C2022      C2023   1.398       .  A
C2022      H2027   1.084       .  S
C2023      C2024   1.410       .  A
C2024      N2025   1.438       .  S
N2025      H2029   1.046       .  S
N2025      H2030   1.046       .  S
N2028      H2031   1.046       .  S
N2028      H2032   1.046       .  S
C2033      C2034   1.401       .  A
C2033      C2038   1.393   1_655  A
C2033      H2040   1.084       .  S
C2034      C2035   1.414       .  A
C2035      C2036   1.403   1_655  A
C2035      N2042   1.432       .  S
C2036      C2037   1.404       .  A
C2036      H2041   1.084       .  S
C2037      C2038   1.412       .  A
C2038      N2039   1.433       .  S
N2039      H2043   1.043       .  S
N2039      H2044   1.046       .  S
N2042      H2045   1.046       .  S
N2042      H2046   1.045       .  S
C2047      C2048   1.408       .  A
C2047      C2052   1.404       .  A
C2047      H2054   1.084       .  S
C2048      C2049   1.412       .  A
C2049      C2050   1.407       .  A
C2049      N2056   1.438       .  S
C2050      C2051   1.406       .  A
C2050      H2055   1.084       .  S
C2051      C2052   1.407       .  A
C2052      N2053   1.432       .  S
N2053      H2057   1.046       .  S
N2053      H2058   1.046       .  S
N2056      H2059   1.046       .  S
N2056      H2060   1.046       .  S
C2061      C2062   1.408       .  A
C2061      C2066   1.405       .  A
C2061      H2068   1.084       .  S
C2062      C2063   1.412       .  A
C2063      C2064   1.405       .  A
C2063      N2070   1.438       .  S
C2064      C2065   1.407       .  A
C2064      H2069   1.084       .  S
C2065      C2066   1.407       .  A
C2066      N2067   1.432       .  S
N2067      H2071   1.046       .  S
N2067      H2072   1.046       .  S
N2070      H2073   1.045       .  S
N2070      H2074   1.046       .  S
C2075      C2076   1.406       .  A
C2075      C2080   1.414       .  A
C2075      H2082   1.084       .  S
C2076      C2077   1.414       .  A
C2077      C2078   1.397       .  A
C2077      N2084   1.433       .  S
C2078      C2079   1.402   1_565  A
C2078      H2083   1.084       .  S
C2079      C2080   1.412   1_545  A
C2080      N2081   1.437       .  S
N2081      H2085   1.046       .  S
N2081      H2086   1.045   1_565  S
N2084      H2087   1.046       .  S
N2084      H2088   1.043       .  S
C2089      C2090   1.396       .  A
C2089      C2094   1.399       .  A
C2089      H2096   1.084       .  S
C2090      C2091   1.408       .  A
C2091      C2092   1.401       .  A
C2091      N2098   1.432       .  S
C2092      C2093   1.410       .  A
C2092      H2097   1.083       .  S
C2093      C2094   1.420       .  A
C2094      N2095   1.432       .  S
N2095      H2099   1.046       .  S
N2095      H2100   1.046       .  S
N2098      H2101   1.046       .  S
N2098      H2102   1.045       .  S
C2103      C2104   1.401       .  A
C2103      C2108   1.405       .  A
C2103      H2110   1.084       .  S
C2104      C2105   1.415       .  A
C2105      C2106   1.399       .  A
C2105      N2112   1.439       .  S
C2106      C2107   1.406       .  A
C2106      H2111   1.084       .  S
C2107      C2108   1.414       .  A
C2108      N2109   1.432       .  S
N2109      H2113   1.046       .  S
N2109      H2114   1.046       .  S
N2112      H2115   1.043       .  S
N2112      H2116   1.046       .  S
C2117      C2118   1.407       .  A
C2117      C2122   1.398       .  A
C2117      H2124   1.084       .  S
C2118      C2119   1.418       .  A
C2119      C2120   1.409       .  A
C2119      N2126   1.437       .  S
C2120      C2121   1.400       .  A
C2120      H2125   1.084       .  S
C2121      C2122   1.404       .  A
C2122      N2123   1.433       .  S
N2123      H2127   1.046       .  S
N2123      H2128   1.046       .  S
N2126      H2129   1.046       .  S
N2126      H2130   1.046       .  S
C2131      C2132   1.400       .  A
C2131      C2136   1.402       .  A
C2131      H2138   1.084       .  S
C2132      C2133   1.405       .  A
C2133      C2134   1.398       .  A
C2133      N2140   1.433       .  S
C2134      C2135   1.405       .  A
C2134      H2139   1.084       .  S
C2135      C2136   1.413       .  A
C2136      N2137   1.432       .  S
N2137      H2141   1.046       .  S
N2137      H2142   1.046       .  S
N2140      H2143   1.046       .  S
N2140      H2144   1.046       .  S
C2145      C2146   1.401       .  A
C2145      C2150   1.406       .  A
C2145      H2152   1.084       .  S
C2146      C2147   1.407       .  A
C2147      C2148   1.400       .  A
C2147      N2154   1.438       .  S
C2148      C2149   1.405       .  A
C2148      H2153   1.084       .  S
C2149      C2150   1.414       .  A
C2150      N2151   1.437       .  S
N2151      H2155   1.046       .  S
N2151      H2156   1.046       .  S
N2154      H2157   1.046       .  S
N2154      H2158   1.046       .  S
C2159      C2160   1.402       .  A
C2159      C2164   1.400       .  A
C2159      H2166   1.084       .  S
C2160      C2161   1.409       .  A
C2161      C2162   1.403       .  A
C2161      N2168   1.432       .  S
C2162      C2163   1.403       .  A
C2162      H2167   1.084       .  S
C2163      C2164   1.409       .  A
C2164      N2165   1.433       .  S
N2165      H2169   1.046       .  S
N2165      H2170   1.045       .  S
N2168      H2171   1.045       .  S
N2168      H2172   1.046       .  S
C2173      C2174   1.398       .  A
C2173      C2178   1.396       .  A
C2173      H2180   1.085       .  S
C2174      C2175   1.414       .  A
C2175      C2176   1.403       .  A
C2175      N2182   1.438       .  S
C2176      C2177   1.409       .  A
C2176      H2181   1.083       .  S
C2177      C2178   1.416       .  A
C2178      N2179   1.433       .  S
N2179      H2183   1.046       .  S
N2179      H2184   1.046       .  S
N2182      H2185   1.043       .  S
N2182      H2186   1.045       .  S
C2187      C2188   1.399       .  A
C2187      C2192   1.402       .  A
C2187      H2194   1.084       .  S
C2188      C2189   1.412       .  A
C2189      C2190   1.400       .  A
C2189      N2196   1.439       .  S
C2190      C2191   1.407       .  A
C2190      H2195   1.082       .  S
C2191      C2192   1.417       .  A
C2192      N2193   1.438       .  S
N2193      H2197   1.046       .  S
N2193      H2198   1.046       .  S
N2196      H2199   1.043       .  S
N2196      H2200   1.046       .  S
C2201      C2202   1.398       .  A
C2201      C2206   1.401       .  A
C2201      H2208   1.084       .  S
C2202      C2203   1.409       .  A
C2203      C2204   1.401       .  A
C2203      N2210   1.432       .  S
C2204      C2205   1.409       .  A
C2204      H2209   1.083       .  S
C2205      C2206   1.418       .  A
C2206      N2207   1.433       .  S
N2207      H2211   1.046       .  S
N2207      H2212   1.046       .  S
N2210      H2213   1.046       .  S
N2210      H2214   1.045       .  S
C2215      C2216   1.400       .  A
C2215      C2220   1.407       .  A
C2215      H2222   1.084       .  S
C2216      C2217   1.410       .  A
C2217      C2218   1.403       .  A
C2217      N2224   1.438       .  S
C2218      C2219   1.406       .  A
C2218      H2223   1.083       .  S
C2219      C2220   1.419       .  A
C2220      N2221   1.438       .  S
N2221      H2225   1.046       .  S
N2221      H2226   1.046       .  S
N2224      H2227   1.045       .  S
N2224      H2228   1.045       .  S
C2229      C2230   1.401       .  A
C2229      C2234   1.402       .  A
C2229      H2236   1.084       .  S
C2230      C2231   1.404       .  A
C2231      C2232   1.397       .  A
C2231      N2238   1.432       .  S
C2232      C2233   1.406       .  A
C2232      H2237   1.084       .  S
C2233      C2234   1.422       .  A
C2234      N2235   1.433       .  S
N2235      H2239   1.045       .  S
N2235      H2240   1.046       .  S
N2238      H2241   1.046       .  S
N2238      H2242   1.046       .  S
C2243      C2244   1.397       .  A
C2243      C2248   1.398       .  A
C2243      H2250   1.084       .  S
C2244      C2245   1.400       .  A
C2245      C2246   1.403       .  A
C2245      N2252   1.432       .  S
C2246      C2247   1.412       .  A
C2246      H2251   1.083       .  S
C2247      C2248   1.418       .  A
C2248      N2249   1.433       .  S
N2249      H2253   1.046       .  S
N2249      H2254   1.046       .  S
N2252      H2255   1.045       .  S
N2252      H2256   1.046       .  S
C2257      C2258   1.398       .  A
C2257      C2262   1.400       .  A
C2257      H2264   1.084       .  S
C2258      C2259   1.405       .  A
C2259      C2260   1.400       .  A
C2259      N2266   1.439       .  S
C2260      C2261   1.410       .  A
C2260      H2265   1.083       .  S
C2261      C2262   1.424       .  A
C2262      N2263   1.432       .  S
N2263      H2267   1.045       .  S
N2263      H2268   1.045       .  S
N2266      H2269   1.045       .  S
N2266      H2270   1.045       .  S
C2271      C2272   1.398       .  A
C2271      C2276   1.399       .  A
C2271      H2278   1.084       .  S
C2272      C2273   1.401       .  A
C2273      C2274   1.403       .  A
C2273      N2280   1.432       .  S
C2274      C2275   1.412       .  A
C2274      H2279   1.083       .  S
C2275      C2276   1.417       .  A
C2276      N2277   1.432       .  S
N2277      H2281   1.046       .  S
N2277      H2282   1.046       .  S
N2280      H2283   1.046       .  S
N2280      H2284   1.046       .  S
C2285      C2286   1.411       .  A
C2285      C2290   1.408       .  A
C2285      H2292   1.083       .  S
C2286      C2287   1.418       .  A
C2287      C2288   1.399       .  A
C2287      N2294   1.432       .  S
C2288      C2289   1.397       .  A
C2288      H2293   1.084       .  S
C2289      C2290   1.405       .  A
C2290      N2291   1.437       .  S
N2291      H2295   1.046       .  S
N2291      H2296   1.046       .  S
N2294      H2297   1.046       .  S
N2294      H2298   1.046       .  S
C2299      C2300   1.401       .  A
C2299      C2304   1.402       .  A
C2299      H2306   1.084       .  S
C2300      C2301   1.410       .  A
C2301      C2302   1.398       .  A
C2301      N2308   1.438       .  S
C2302      C2303   1.408       .  A
C2302      H2307   1.084       .  S
C2303      C2304   1.414       .  A
C2304      N2305   1.438       .  S
N2305      H2309   1.046       .  S
N2305      H2310   1.046       .  S
N2308      H2311   1.044       .  S
N2308      H2312   1.045       .  S
C2313      C2314   1.399       .  A
C2313      C2318   1.407       .  A
C2313      H2320   1.084       .  S
C2314      C2315   1.411       .  A
C2315      C2316   1.395       .  A
C2315      N2322   1.440       .  S
C2316      C2317   1.409       .  A
C2316      H2321   1.083       .  S
C2317      C2318   1.419       .  A
C2318      N2319   1.436       .  S
N2319      H2323   1.045       .  S
N2319      H2324   1.046       .  S
N2322      H2325   1.043       .  S
N2322      H2326   1.046       .  S
C2327      C2328   1.405       .  A
C2327      C2332   1.403       .  A
C2327      H2334   1.084       .  S
C2328      C2329   1.411       .  A
C2329      C2330   1.403       .  A
C2329      N2336   1.432       .  S
C2330      C2331   1.402       .  A
C2330      H2335   1.084       .  S
C2331      C2332   1.409       .  A
C2332      N2333   1.438       .  S
N2333      H2337   1.046       .  S
N2333      H2338   1.046       .  S
N2336      H2339   1.046       .  S
N2336      H2340   1.046       .  S
C2341      C2342   1.400       .  A
C2341      C2346   1.400       .  A
C2341      H2348   1.084       .  S
C2342      C2343   1.404       .  A
C2343      C2344   1.404       .  A
C2343      N2350   1.431       .  S
C2344      C2345   1.408       .  A
C2344      H2349   1.083       .  S
C2345      C2346   1.414       .  A
C2346      N2347   1.432       .  S
N2347      H2351   1.046       .  S
N2347      H2352   1.046       .  S
N2350      H2353   1.045       .  S
N2350      H2354   1.046       .  S
C2355      C2356   1.406       .  A
C2355      C2360   1.394       .  A
C2355      H2362   1.084       .  S
C2356      C2357   1.416       .  A
C2357      C2358   1.409       .  A
C2357      N2364   1.437       .  S
C2358      C2359   1.403       .  A
C2358      H2363   1.084       .  S
C2359      C2360   1.404       .  A
C2360      N2361   1.433       .  S
N2361      H2365   1.046       .  S
N2361      H2366   1.046       .  S
N2364      H2367   1.046       .  S
N2364      H2368   1.046       .  S
C2369      C2370   1.408       .  A
C2369      C2374   1.404       .  A
C2369      H2376   1.083       .  S
C2370      C2371   1.417       .  A
C2371      C2372   1.409       .  A
C2371      N2378   1.437       .  S
C2372      C2373   1.401       .  A
C2372      H2377   1.084       .  S
C2373      C2374   1.406       .  A
C2374      N2375   1.438       .  S
N2375      H2379   1.046       .  S
N2375      H2380   1.046       .  S
N2378      H2381   1.046       .  S
N2378      H2382   1.046       .  S
C2383      C2384   1.402       .  A
C2383      C2388   1.407       .  A
C2383      H2390   1.084       .  S
C2384      C2385   1.403       .  A
C2385      C2386   1.399       .  A
C2385      N2392   1.433       .  S
C2386      C2387   1.408       .  A
C2386      H2391   1.083       .  S
C2387      C2388   1.420       .  A
C2388      N2389   1.438       .  S
N2389      H2393   1.046       .  S
N2389      H2394   1.046       .  S
N2392      H2395   1.046       .  S
N2392      H2396   1.046       .  S
C2397      C2398   1.399       .  A
C2397      C2402   1.402       .  A
C2397      H2404   1.084       .  S
C2398      C2399   1.406       .  A
C2399      C2400   1.408       .  A
C2399      N2406   1.437       .  S
C2400      C2401   1.411       .  A
C2400      H2405   1.083       .  S
C2401      C2402   1.418       .  A
C2402      N2403   1.432       .  S
N2403      H2407   1.046       .  S
N2403      H2408   1.046       .  S
N2406      H2409   1.045       .  S
N2406      H2410   1.045       .  S
C2411      C2412   1.400       .  A
C2411      C2416   1.402       .  A
C2411      H2418   1.084       .  S
C2412      C2413   1.405       .  A
C2413      C2414   1.403       .  A
C2413      N2420   1.432       .  S
C2414      C2415   1.407       .  A
C2414      H2419   1.084       .  S
C2415      C2416   1.415       .  A
C2416      N2417   1.432       .  S
N2417      H2421   1.046       .  S
N2417      H2422   1.046       .  S
N2420      H2423   1.046       .  S
N2420      H2424   1.045       .  S
C2425      C2426   1.402       .  A
C2425      C2430   1.408       .  A
C2425      H2432   1.084       .  S
C2426      C2427   1.412       .  A
C2427      C2428   1.394       .  A
C2427      N2434   1.440       .  S
C2428      C2429   1.407       .  A
C2428      H2433   1.084       .  S
C2429      C2430   1.417       .  A
C2430      N2431   1.437       .  S
N2431      H2435   1.046       .  S
N2431      H2436   1.045       .  S
N2434      H2437   1.042       .  S
N2434      H2438   1.045       .  S
C2439      C2440   1.398       .  A
C2439      C2444   1.400       .  A
C2439      H2446   1.084       .  S
C2440      C2441   1.404       .  A
C2441      C2442   1.405       .  A
C2441      N2448   1.432       .  S
C2442      C2443   1.408       .  A
C2442      H2447   1.083       .  S
C2443      C2444   1.416       .  A
C2444      N2445   1.433       .  S
N2445      H2449   1.045       .  S
N2445      H2450   1.046       .  S
N2448      H2451   1.045       .  S
N2448      H2452   1.046       .  S
C2453      C2454   1.403       .  A
C2453      C2458   1.398       .  A
C2453      H2460   1.084       .  S
C2454      C2455   1.412       .  A
C2455      C2456   1.405       .  A
C2455      N2462   1.432       .  S
C2456      C2457   1.401       .  A
C2456      H2461   1.084       .  S
C2457      C2458   1.405       .  A
C2458      N2459   1.432       .  S
N2459      H2463   1.046       .  S
N2459      H2464   1.046       .  S
N2462      H2465   1.046       .  S
N2462      H2466   1.045       .  S
C2467      C2468   1.400       .  A
C2467      C2472   1.402       .  A
C2467      H2474   1.084       .  S
C2468      C2469   1.411       .  A
C2469      C2470   1.400       .  A
C2469      N2476   1.438       .  S
C2470      C2471   1.411       .  A
C2470      H2475   1.083       .  S
C2471      C2472   1.417       .  A
C2472      N2473   1.437       .  S
N2473      H2477   1.046       .  S
N2473      H2478   1.045       .  S
N2476      H2479   1.043       .  S
N2476      H2480   1.045       .  S
C2481      C2482   1.399       .  A
C2481      C2486   1.399       .  A
C2481      H2488   1.084       .  S
C2482      C2483   1.412       .  A
C2483      C2484   1.403       .  A
C2483      N2490   1.438       .  S
C2484      C2485   1.410       .  A
C2484      H2489   1.083       .  S
C2485      C2486   1.416       .  A
C2486      N2487   1.433       .  S
N2487      H2491   1.046       .  S
N2487      H2492   1.046       .  S
N2490      H2493   1.043       .  S
N2490      H2494   1.045       .  S
C2495      C2496   1.398       .  A
C2495      C2500   1.399       .  A
C2495      H2502   1.084       .  S
C2496      C2497   1.412       .  A
C2497      C2498   1.402       .  A
C2497      N2504   1.438       .  S
C2498      C2499   1.410       .  A
C2498      H2503   1.083       .  S
C2499      C2500   1.418       .  A
C2500      N2501   1.433       .  S
N2501      H2505   1.046       .  S
N2501      H2506   1.046       .  S
N2504      H2507   1.043       .  S
N2504      H2508   1.045       .  S
C2509      C2510   1.407       .  A
C2509      C2514   1.405       .  A
C2509      H2516   1.083       .  S
C2510      C2511   1.416       .  A
C2511      C2512   1.401       .  A
C2511      N2518   1.438       .  S
C2512      C2513   1.398       .  A
C2512      H2517   1.084       .  S
C2513      C2514   1.405       .  A
C2514      N2515   1.437       .  S
N2515      H2519   1.046       .  S
N2515      H2520   1.046       .  S
N2518      H2521   1.046       .  S
N2518      H2522   1.046       .  S
C2523      C2524   1.399       .  A
C2523      C2528   1.401       .  A
C2523      H2530   1.084       .  S
C2524      C2525   1.409       .  A
C2525      C2526   1.399       .  A
C2525      N2532   1.432       .  S
C2526      C2527   1.406       .  A
C2526      H2531   1.084       .  S
C2527      C2528   1.415       .  A
C2528      N2529   1.438       .  S
N2529      H2533   1.046       .  S
N2529      H2534   1.046       .  S
N2532      H2535   1.045       .  S
N2532      H2536   1.045       .  S
C2537      C2538   1.399       .  A
C2537      C2542   1.404       .  A
C2537      H2544   1.084       .  S
C2538      C2539   1.403       .  A
C2539      C2540   1.398       .  A
C2539      N2546   1.433       .  S
C2540      C2541   1.408       .  A
C2540      H2545   1.083       .  S
C2541      C2542   1.416       .  A
C2542      N2543   1.432       .  S
N2543      H2547   1.046       .  S
N2543      H2548   1.046       .  S
N2546      H2549   1.046       .  S
N2546      H2550   1.046       .  S
C2551      C2552   1.400       .  A
C2551      C2556   1.408       .  A
C2551      H2558   1.084       .  S
C2552      C2553   1.402       .  A
C2553      C2554   1.396       .  A
C2553      N2560   1.432       .  S
C2554      C2555   1.407       .  A
C2554      H2559   1.083       .  S
C2555      C2556   1.419       .  A
C2556      N2557   1.438       .  S
N2557      H2561   1.046       .  S
N2557      H2562   1.046       .  S
N2560      H2563   1.046       .  S
N2560      H2564   1.045       .  S
C2565      C2566   1.402       .  A
C2565      C2570   1.408       .  A
C2565      H2572   1.084       .  S
C2566      C2567   1.410       .  A
C2567      C2568   1.393       .  A
C2567      N2574   1.433       .  S
C2568      C2569   1.405       .  A
C2568      H2573   1.084       .  S
C2569      C2570   1.416       .  A
C2570      N2571   1.438       .  S
N2571      H2575   1.046       .  S
N2571      H2576   1.046       .  S
N2574      H2577   1.045       .  S
N2574      H2578   1.044       .  S
C2579      C2580   1.400       .  A
C2579      C2584   1.398       .  A
C2579      H2586   1.084       .  S
C2580      C2581   1.413       .  A
C2581      C2582   1.399       .  A
C2581      N2588   1.439       .  S
C2582      C2583   1.407       .  A
C2582      H2587   1.083       .  S
C2583      C2584   1.413       .  A
C2584      N2585   1.433       .  S
N2585      H2589   1.046       .  S
N2585      H2590   1.046       .  S
N2588      H2591   1.043       .  S
N2588      H2592   1.045       .  S
C2593      C2594   1.400       .  A
C2593      C2598   1.406       .  A
C2593      H2600   1.084       .  S
C2594      C2595   1.404       .  A
C2595      C2596   1.399       .  A
C2595      N2602   1.433       .  S
C2596      C2597   1.406       .  A
C2596      H2601   1.084       .  S
C2597      C2598   1.415       .  A
C2598      N2599   1.432       .  S
N2599      H2603   1.046       .  S
N2599      H2604   1.045       .  S
N2602      H2605   1.045       .  S
N2602      H2606   1.045       .  S
C2607      C2608   1.399       .  A
C2607      C2612   1.405       .  A
C2607      H2614   1.084       .  S
C2608      C2609   1.408       .  A
C2609      C2610   1.403       .  A
C2609      N2616   1.438       .  S
C2610      C2611   1.405       .  A
C2610      H2615   1.084       .  S
C2611      C2612   1.417       .  A
C2612      N2613   1.438       .  S
N2613      H2617   1.046       .  S
N2613      H2618   1.046       .  S
N2616      H2619   1.045       .  S
N2616      H2620   1.046       .  S
C2621      C2622   1.405       .  A
C2621      C2626   1.403       .  A
C2621      H2628   1.084       .  S
C2622      C2623   1.411       .  A
C2623      C2624   1.401       .  A
C2623      N2630   1.433       .  S
C2624      C2625   1.402       .  A
C2624      H2629   1.084       .  S
C2625      C2626   1.407       .  A
C2626      N2627   1.432       .  S
N2627      H2631   1.046       .  S
N2627      H2632   1.045       .  S
N2630      H2633   1.046       .  S
N2630      H2634   1.046       .  S
C2635      C2636   1.408       .  A
C2635      C2640   1.399       .  A
C2635      H2642   1.083       .  S
C2636      C2637   1.424       .  A
C2637      C2638   1.402       .  A
C2637      N2644   1.432       .  S
C2638      C2639   1.401       .  A
C2638      H2643   1.084       .  S
C2639      C2640   1.404       .  A
C2640      N2641   1.433       .  S
N2641      H2645   1.046       .  S
N2641      H2646   1.046       .  S
N2644      H2647   1.045       .  S
N2644      H2648   1.045       .  S
C2649      C2650   1.398       .  A
C2649      C2654   1.399       .  A
C2649      H2656   1.084       .  S
C2650      C2651   1.402       .  A
C2651      C2652   1.403       .  A
C2651      N2658   1.432       .  S
C2652      C2653   1.409       .  A
C2652      H2657   1.083       .  S
C2653      C2654   1.418       .  A
C2654      N2655   1.433       .  S
N2655      H2659   1.046       .  S
N2655      H2660   1.046       .  S
N2658      H2661   1.045       .  S
N2658      H2662   1.045       .  S
C2663      C2664   1.399       .  A
C2663      C2668   1.403       .  A
C2663      H2670   1.084       .  S
C2664      C2665   1.408       .  A
C2665      C2666   1.402       .  A
C2665      N2672   1.438       .  S
C2666      C2667   1.406       .  A
C2666      H2671   1.083       .  S
C2667      C2668   1.414       .  A
C2668      N2669   1.432       .  S
N2669      H2673   1.046       .  S
N2669      H2674   1.046       .  S
N2672      H2675   1.045       .  S
N2672      H2676   1.046       .  S
C2677      C2678   1.406       .  A
C2677      C2682   1.398       .  A
C2677      H2684   1.084       .  S
C2678      C2679   1.413       .  A
C2679      C2680   1.402       .  A
C2679      N2686   1.438       .  S
C2680      C2681   1.401       .  A
C2680      H2685   1.084       .  S
C2681      C2682   1.409       .  A
C2682      N2683   1.432       .  S
N2683      H2687   1.045       .  S
N2683      H2688   1.045       .  S
N2686      H2689   1.046       .  S
N2686      H2690   1.046       .  S
C2691      C2692   1.401       .  A
C2691      C2696   1.402       .  A
C2691      H2698   1.084       .  S
C2692      C2693   1.406       .  A
C2693      C2694   1.398       .  A
C2693      N2700   1.433       .  S
C2694      C2695   1.405       .  A
C2694      H2699   1.083       .  S
C2695      C2696   1.412       .  A
C2696      N2697   1.432       .  S
N2697      H2701   1.045       .  S
N2697      H2702   1.046       .  S
N2700      H2703   1.046       .  S
N2700      H2704   1.046       .  S
C2705      C2706   1.408       .  A
C2705      C2710   1.400       .  A
C2705      H2712   1.084       .  S
C2706      C2707   1.415       .  A
C2707      C2708   1.405       .  A
C2707      N2714   1.432       .  S
C2708      C2709   1.400       .  A
C2708      H2713   1.084       .  S
C2709      C2710   1.404       .  A
C2710      N2711   1.432       .  S
N2711      H2715   1.046       .  S
N2711      H2716   1.046       .  S
N2714      H2717   1.046       .  S
N2714      H2718   1.046       .  S
C2719      C2720   1.407       .  A
C2719      C2724   1.398       .  A
C2719      H2726   1.084       .  S
C2720      C2721   1.418       .  A
C2721      C2722   1.408       .  A
C2721      N2728   1.438       .  S
C2722      C2723   1.400       .  A
C2722      H2727   1.084       .  S
C2723      C2724   1.402       .  A
C2724      N2725   1.432       .  S
N2725      H2729   1.046       .  S
N2725      H2730   1.046       .  S
N2728      H2731   1.046       .  S
N2728      H2732   1.046       .  S
C2733      C2734   1.407       .  A
C2733      C2738   1.397       .  A
C2733      H2740   1.084       .  S
C2734      C2735   1.419       .  A
C2735      C2736   1.408       .  A
C2735      N2742   1.437       .  S
C2736      C2737   1.399       .  A
C2736      H2741   1.084       .  S
C2737      C2738   1.402       .  A
C2738      N2739   1.433       .  S
N2739      H2743   1.046       .  S
N2739      H2744   1.046       .  S
N2742      H2745   1.045       .  S
N2742      H2746   1.046       .  S
C2747      C2748   1.397       .  A
C2747      C2752   1.399       .  A
C2747      H2754   1.084       .  S
C2748      C2749   1.403       .  A
C2749      C2750   1.405       .  A
C2749      N2756   1.432       .  S
C2750      C2751   1.412       .  A
C2750      H2755   1.083       .  S
C2751      C2752   1.418       .  A
C2752      N2753   1.433       .  S
N2753      H2757   1.046       .  S
N2753      H2758   1.046       .  S
N2756      H2759   1.046       .  S
N2756      H2760   1.046       .  S
