geometry optimzed in LAMMPS
_audit_creation_date              2020-11-30 
_audit_creation_method            'lammps2cif' 
_symmetry_space_group_name_H-M    'P1' 
_symmetry_Int_Tables_number       1 
_symmetry_cell_setting            triclinic 
loop_ 
_symmetry_equiv_pos_as_xyz 
  x,y,z 
_cell_length_a                    45.0146696 
_cell_length_b                    44.86527780026413 
_cell_length_c                    44.831745001680304 
_cell_angle_alpha                 89.86265862961902 
_cell_angle_beta                  90.32402045602936 
_cell_angle_gamma                 90.0001966038257 
loop_ 
_atom_site_label 
_atom_site_type_symbol 
_atom_site_fract_x 
_atom_site_fract_y 
_atom_site_fract_z 
_atom_site_charge 
C1          C  0.97729306  0.26485696  0.22887977     0.03000
C2          C  0.98192814  0.28665725  0.25092629    -0.13100
C3          C  0.98801976  0.27875352  0.28053551     0.00500
C4          C  0.99001908  0.24854800  0.28805064    -0.11700
C5          C  0.98565249  0.22630970  0.26653779     0.03000
C6          C  0.97929305  0.23443219  0.23674312    -0.11100
H7          H  0.98031814  0.31004369  0.24500873     0.08600
H8          H  0.99490765  0.24216929  0.31090039     0.06100
H9          H  0.97568535  0.21737687  0.22005337     0.06000
O10         O  0.01142584  0.46392173  0.42723961    -0.80200
O11         O  0.01796151  0.46581245  0.59779747    -0.81800
O12         O  0.05788596  0.42383301  0.51244866    -0.78800
O13         O  0.96093664  0.43588500  0.51601099    -0.77200
O14         O  0.92816973  0.47480380  0.51706990    -0.79000
O15         O  0.09736017  0.45558400  0.50724550    -0.79900
O16         O  0.01154757  0.43170849  0.56039421    -0.81200
O17         O  0.00754383  0.42868393  0.46397423    -0.81500
Eu18       Eu  0.01242138  0.45453759  0.51174048     2.39200
O19         O  0.98799087  0.48780308  0.54370737    -0.89000
O20         O  0.04470739  0.47945028  0.47901621    -0.92700
C21         C  0.00839705  0.43674385  0.43636307     1.02000
C22         C  0.01402157  0.43906102  0.58796461     1.01900
C23         C  0.08594790  0.42939313  0.51011509     1.01800
C24         C  0.93428573  0.44655844  0.51773624     0.99700
H25         H  0.05954260  0.46726694  0.55231358     0.29400
O26         O  0.04786300  0.48085246  0.54035650    -1.01400
H27         H  0.96955681  0.47641121  0.47106243     0.29400
O28         O  0.98390322  0.48739496  0.48271477    -1.04000
O29         O  0.03808350  0.56205867  0.59424998    -0.81200
O30         O  0.02277932  0.56082202  0.42639534    -0.80700
O31         O  0.10768903  0.50681350  0.55333853    -0.79200
O32         O  0.93911195  0.52466570  0.56536264    -0.82500
O33         O  0.93322524  0.52536958  0.46644785    -0.80400
O34         O  0.10196242  0.50545035  0.45749175    -0.79000
O35         O  0.07787398  0.59274629  0.51258435    -0.80500
O36         O  0.97987103  0.60508333  0.51409107    -0.82500
O37         O  0.10930388  0.55282707  0.50850660    -0.79200
O38         O  0.94089299  0.57249207  0.51741560    -0.81900
O39         O  0.07523414  0.51215568  0.59210382    -0.77600
O40         O  0.06413507  0.51091103  0.42365255    -0.77600
O41         O  0.96713207  0.52210874  0.42859618    -0.77300
O42         O  0.97615603  0.52281517  0.60041604    -0.80800
O43         O  0.03906374  0.59763917  0.55768952    -0.80200
O44         O  0.02842120  0.59813337  0.46070072    -0.78500
Eu45       Eu  0.02320617  0.51437348  0.57236590     2.39800
Eu46       Eu  0.01643680  0.51321980  0.45087312     2.39600
Eu47       Eu  0.07914051  0.50699339  0.50718325     2.38400
Eu48       Eu  0.95934713  0.52085061  0.51473796     2.39900
Eu49       Eu  0.02592615  0.57450503  0.51022585     2.39800
O50         O  0.99118368  0.54691234  0.48223162    -0.93000
O51         O  0.05313203  0.53971103  0.53810907    -0.91800
C52         C  0.04342948  0.58865699  0.58468510     1.02200
C53         C  0.02709249  0.58817709  0.43372347     1.00900
C54         C  0.10181354  0.50986447  0.58121506     1.00300
C55         C  0.94846801  0.52551395  0.59264798     1.02300
C56         C  0.94048551  0.52557596  0.43858534     1.01300
C57         C  0.09198052  0.50843101  0.43062789     1.00100
C58         C  0.10408059  0.58094483  0.51167774     1.00200
C59         C  0.95182840  0.59913219  0.51684219     1.02800
H60         H  0.06445522  0.55181806  0.46605784     0.30100
O61         O  0.05112903  0.54088936  0.47882308    -1.05100
H62         H  0.98495893  0.56211445  0.55631727     0.32200
O63         O  0.99465059  0.54805726  0.54322841    -1.07700
C64         C  0.99774982  0.70673098  0.74721302     0.03000
C65         C  0.98206099  0.72859155  0.73097400    -0.13100
C66         C  0.99792618  0.75014255  0.71458239     0.00500
C67         C  0.02912582  0.74902670  0.71414672    -0.11700
C68         C  0.04485099  0.72498928  0.72691086     0.03000
C69         C  0.02877388  0.70554646  0.74552168    -0.11100
H70         H  0.95800396  0.72877456  0.73099310     0.08600
H71         H  0.04059684  0.76551550  0.70093967     0.06100
H72         H  0.03971042  0.68747679  0.75716014     0.06000
C73         C  0.98992240  0.22948948  0.74943838     0.03000
C74         C  0.98466401  0.25439916  0.73133416    -0.13100
C75         C  0.98212042  0.25184735  0.70045459     0.00500
C76         C  0.98375071  0.22360338  0.68750643    -0.11700
C77         C  0.98991642  0.19812457  0.70468315     0.03000
C78         C  0.99274758  0.20095984  0.73613347    -0.11100
H79         H  0.98429532  0.27630858  0.74150114     0.08600
H80         H  0.98134564  0.22150303  0.66352383     0.06100
H81         H  0.99783408  0.18165424  0.74976265     0.06000
C82         C  0.96722516  0.70062093  0.20174370     0.03000
C83         C  0.98406434  0.68681192  0.22454294    -0.13100
C84         C  0.99433097  0.70315155  0.24911211     0.00500
C85         C  0.98987285  0.73382055  0.24942600    -0.11700
C86         C  0.96964462  0.74726595  0.22999026     0.03000
C87         C  0.95869192  0.73091158  0.20528854    -0.11100
H88         H  0.98839537  0.66310175  0.22349418     0.08600
H89         H  0.99893175  0.74689027  0.26766979     0.06100
H90         H  0.94325458  0.74114403  0.18975126     0.06000
O91         O  0.98702217  0.01967608  0.38579700    -0.80200
O92         O  0.98175732  0.01284896  0.55593105    -0.81800
O93         O  0.93947901  0.05405942  0.46883714    -0.78800
O94         O  0.03584098  0.04781995  0.47295394    -0.77200
O95         O  0.07123376  0.01125289  0.47396401    -0.79000
O96         O  0.90108758  0.02060668  0.46670366    -0.79900
O97         O  0.98751390  0.05002471  0.52139596    -0.81200
O98         O  0.98780591  0.05427163  0.42322363    -0.81500
Eu99       Eu  0.98614816  0.02713368  0.47119827     2.39200
O100        O  0.01360471  0.99485577  0.50207268    -0.89000
O101        O  0.95558002  0.99962363  0.43892065    -0.92700
C102        C  0.98744787  0.04672801  0.39543420     1.02000
C103        C  0.98518973  0.04045912  0.54854501     1.01900
C104        C  0.91170033  0.04737723  0.46748235     1.01800
C105        C  0.06296778  0.03880716  0.47406941     0.99700
H106        H  0.94056552  0.01071914  0.51148340     0.29400
O107        O  0.95268659  0.99809458  0.49905968    -1.01400
H108        H  0.03042067  0.00960549  0.42984083     0.29400
O109        O  0.01704766  0.99744343  0.44143484    -1.04000
O110        O  0.97517594  0.91628096  0.55118039    -0.81200
O111        O  0.98465237  0.92358669  0.38081725    -0.80700
O112        O  0.89536009  0.96722457  0.51573129    -0.79200
O113        O  0.06518936  0.95843753  0.52343214    -0.82500
O114        O  0.07030656  0.96209263  0.42427063    -0.80400
O115        O  0.90105050  0.97085252  0.41611559    -0.79000
O116        O  0.93037496  0.88526446  0.45465886    -0.80500
O117        O  0.02750888  0.87849936  0.46764949    -0.82500
O118        O  0.89634674  0.92316504  0.45531833    -0.79200
O119        O  0.06371563  0.91432194  0.47001334    -0.81900
O120        O  0.93103900  0.96621429  0.55210778    -0.77600
O121        O  0.93940850  0.97188856  0.38265507    -0.77600
O122        O  0.03633329  0.96848407  0.38664791    -0.77300
O123        O  0.02724708  0.96077133  0.55714490    -0.80800
O124        O  0.97334922  0.87940052  0.51617836    -0.80200
O125        O  0.97930883  0.88545066  0.41441978    -0.78500
Eu126      Eu  0.98019040  0.96518116  0.52894915     2.39800
Eu127      Eu  0.98673885  0.97000663  0.40920784     2.39600
Eu128      Eu  0.92234401  0.96990345  0.46690310     2.38400
Eu129      Eu  0.04348066  0.96405747  0.47237233     2.39900
Eu130      Eu  0.97979838  0.90559656  0.46673119     2.39800
O131        O  0.01316963  0.93617683  0.43967123    -0.93000
O132        O  0.94955839  0.93634639  0.49708366    -0.91800
C133        C  0.97319373  0.88871890  0.54364682     1.02200
C134        C  0.98098442  0.89584706  0.38735823     1.00900
C135        C  0.90362792  0.96653439  0.54355237     1.00300
C136        C  0.05500888  0.95811723  0.55045119     1.02300
C137        C  0.06308315  0.96468832  0.39639740     1.01300
C138        C  0.91164743  0.97123125  0.38938127     1.00100
C139        C  0.90395541  0.89584136  0.45048696     1.00200
C140        C  0.05489122  0.88713187  0.46831351     1.02800
H141        H  0.94251528  0.93006383  0.42300123     0.30100
O142        O  0.95426758  0.94072106  0.43748020    -1.05100
H143        H  0.02091155  0.92052154  0.51207724     0.32200
O144        O  0.00996036  0.93404592  0.49931890    -1.07700
C145        C  0.22095675  0.25489629  0.51123271     0.03000
C146        C  0.20126198  0.23277484  0.50142744    -0.13100
C147        C  0.20985133  0.20282941  0.50038750     0.00500
C148        C  0.23901225  0.19538344  0.50799446    -0.11700
C149        C  0.25958076  0.21709535  0.51691893     0.03000
C150        C  0.25061449  0.24724299  0.51840530    -0.11100
H151        H  0.17877000  0.23907037  0.49539268     0.08600
H152        H  0.24577420  0.17221683  0.50789195     0.06100
H153        H  0.26598630  0.26414237  0.52614062     0.06000
C154        C  0.74071201  0.24988233  0.51388578     0.03000
C155        C  0.75803376  0.22627980  0.50368706    -0.13100
C156        C  0.78884336  0.22797832  0.50303223     0.00500
C157        C  0.80266993  0.25489944  0.51057618    -0.11700
C158        C  0.78617535  0.27989334  0.52013600     0.03000
C159        C  0.75467689  0.27711629  0.52211965    -0.11100
H160        H  0.74714539  0.20572474  0.49710765     0.08600
H161        H  0.82662861  0.25624576  0.50927996     0.06100
H162        H  0.74145061  0.29544868  0.53036805     0.06000
C163        C  0.74411973  0.77777350  0.49811972     0.03000
C164        C  0.76721122  0.76234088  0.51317610    -0.13100
C165        C  0.78668472  0.74390429  0.49679305     0.00500
C166        C  0.78331029  0.74218097  0.46572352    -0.11700
C167        C  0.76304972  0.76048883  0.45014838     0.03000
C168        C  0.74122279  0.77498562  0.46709713    -0.11100
H169        H  0.77061720  0.76548526  0.53688972     0.08600
H170        H  0.79922312  0.72882854  0.45372896     0.06100
H171        H  0.72393678  0.78773851  0.45613160     0.06000
C172        C  0.26063830  0.72727880  0.52183188     0.03000
C173        C  0.23860612  0.74007479  0.50402670    -0.13100
C174        C  0.23810811  0.77043678  0.49836494     0.00500
C175        C  0.26268478  0.78773357  0.50644204    -0.11700
C176        C  0.28687271  0.77524322  0.52220487     0.03000
C177        C  0.28539328  0.74471010  0.53083946    -0.11100
H178        H  0.21992793  0.72649821  0.49686223     0.08600
H179        H  0.26259156  0.81130414  0.50120467     0.06100
H180        H  0.30269496  0.73500115  0.54463120     0.06000
C181        C  0.71517197  0.97492410  0.20735855     0.03000
C182        C  0.70108305  0.98941325  0.23127271    -0.13100
C183        C  0.71693332  0.99693187  0.25704127     0.00500
C184        C  0.74736332  0.99201382  0.25815824    -0.11700
C185        C  0.76166787  0.97621526  0.23561892     0.03000
C186        C  0.74573191  0.96779186  0.20979942    -0.11100
H187        H  0.67735667  0.99347399  0.23047809     0.08600
H188        H  0.75950156  0.99758791  0.27839894     0.06100
H189        H  0.75651198  0.95486384  0.19260292     0.06000
O190        O  0.46009979  0.09446260  0.50911256    -0.80200
O191        O  0.47394123  0.92497714  0.51930526    -0.81800
O192        O  0.43180462  0.00377814  0.46302669    -0.78800
O193        O  0.43335316  0.01153775  0.56113750    -0.77200
O194        O  0.46826285  0.01639345  0.59818957    -0.79000
O195        O  0.46781507  0.00215842  0.42716459    -0.79900
O196        O  0.43575135  0.95857031  0.51775658    -0.81200
O197        O  0.42712626  0.05585575  0.51297754    -0.81500
Eu198      Eu  0.45621653  0.00923413  0.51220158     2.39200
O199        O  0.48868503  0.98369769  0.54480335    -0.89000
O200        O  0.48282201  0.04001565  0.47922535    -0.92700
C201        C  0.43357074  0.08391652  0.51185412     1.02000
C202        C  0.44592794  0.93167305  0.51964895     1.01900
C203        C  0.44052023  0.00118970  0.43570658     1.01800
C204        C  0.44127526  0.01422166  0.58865005     0.99700
H205        H  0.47724144  0.96499107  0.47307572     0.29400
O206        O  0.48858922  0.97937334  0.48438733    -1.01400
H207        H  0.47103887  0.05563296  0.55237718     0.29400
O208        O  0.48410495  0.04336104  0.54061961    -1.04000
O209        O  0.57229402  0.93488698  0.51742351    -0.81200
O210        O  0.55759334  0.10312583  0.50668722    -0.80700
O211        O  0.52121690  0.95844963  0.43207490    -0.79200
O212        O  0.52147869  0.96949099  0.60125026    -0.82500
O213        O  0.51413983  0.06987915  0.59316226    -0.80400
O214        O  0.51193674  0.05820648  0.42434973    -0.79000
O215        O  0.60026783  0.01794047  0.46283890    -0.80500
O216        O  0.59926608  0.03398173  0.55962608    -0.82500
O217        O  0.56367389  0.01382117  0.42728224    -0.79200
O218        O  0.56371053  0.03296904  0.59580129    -0.81900
O219        O  0.52309315  0.92479111  0.47044967    -0.77600
O220        O  0.50669019  0.09609604  0.45807890    -0.77600
O221        O  0.50966884  0.10256550  0.55400839    -0.77300
O222        O  0.52359650  0.93216734  0.56668029    -0.80800
O223        O  0.60670204  0.97227385  0.51614531    -0.80200
O224        O  0.59674413  0.07059891  0.51013448    -0.78500
Eu225      Eu  0.52111595  0.95393825  0.51677426     2.39800
Eu226      Eu  0.51083094  0.07404588  0.50773797     2.39600
Eu227      Eu  0.51581699  0.00997768  0.45185221     2.38400
Eu228      Eu  0.51656039  0.01789604  0.57333791     2.39900
Eu229      Eu  0.57678789  0.01899379  0.51208677     2.39800
O230        O  0.54291538  0.04749487  0.53939438    -0.93000
O231        O  0.54851423  0.98455000  0.48424964    -0.91800
C232        C  0.59940437  0.94432814  0.51731499     1.02200
C233        C  0.58565690  0.09718708  0.50845952     1.00900
C234        C  0.52295321  0.93145718  0.44241762     1.00300
C235        C  0.52340554  0.94155563  0.59382538     1.02300
C236        C  0.51185263  0.09652070  0.58202139     1.01300
C237        C  0.50862178  0.08604348  0.43130382     1.00100
C238        C  0.59096167  0.01640007  0.43562209     1.00200
C239        C  0.59011246  0.03873862  0.58641641     1.02800
H240        H  0.55493280  0.05739831  0.46657786     0.30100
O241        O  0.54380939  0.04459598  0.47978747    -1.05100
H242        H  0.56328182  0.97796231  0.55864852     0.32200
O243        O  0.54972814  0.98815707  0.54536222    -1.07700
C244        C  0.24186754  0.95281153  0.75420699     0.03000
C245        C  0.21459337  0.94519723  0.74007018    -0.13100
C246        C  0.21134251  0.94952856  0.70871696     0.00500
C247        C  0.23580079  0.95994113  0.69228675    -0.11700
C248        C  0.26248625  0.96748878  0.70644886     0.03000
C249        C  0.26442115  0.96565366  0.73732100    -0.11100
H250        H  0.19675121  0.93540146  0.75287113     0.08600
H251        H  0.23407597  0.96182256  0.66823512     0.06100
H252        H  0.28481585  0.97239374  0.74843869     0.06000
C253        C  0.71529489  0.97735918  0.74513479     0.03000
C254        C  0.73701589  0.96386486  0.72685259    -0.13100
C255        C  0.75571202  0.98193099  0.70904237     0.00500
C256        C  0.75219349  0.01296687  0.70961151    -0.11700
C257        C  0.72873669  0.02667459  0.72517208     0.03000
C258        C  0.71189238  0.00844700  0.74438188    -0.11100
H259        H  0.73887458  0.93982418  0.72597733     0.08600
H260        H  0.76667252  0.02583575  0.69546179     0.06100
H261        H  0.69415676  0.01771923  0.75754017     0.06000
C262        C  0.27358571  0.97183235  0.22253320     0.03000
C263        C  0.29534530  0.98006042  0.24347992    -0.13100
C264        C  0.28837651  0.98316411  0.27365596     0.00500
C265        C  0.25899354  0.97878359  0.28266141    -0.11700
C266        C  0.23679552  0.97056621  0.26213766     0.03000
C267        C  0.24402378  0.96739568  0.23174853    -0.11100
H268        H  0.31808301  0.98321033  0.23624913     0.08600
H269        H  0.25350538  0.98036672  0.30612034     0.06100
H270        H  0.22729222  0.96026763  0.21583972     0.06000
O271        O  0.57058296  0.96523621  0.01641887    -0.80200
O272        O  0.40178666  0.97294763  0.02761757    -0.81800
O273        O  0.48920197  0.02043419  0.05703836    -0.78800
O274        O  0.48370726  0.92431288  0.05782525    -0.77200
O275        O  0.47696587  0.88586598  0.02504160    -0.79000
O276        O  0.48903507  0.05625961  0.02064020    -0.79900
O277        O  0.43981892  0.96928112  0.06151357    -0.81200
O278        O  0.53686180  0.96746160  0.05431268    -0.81500
Eu279      Eu  0.48641361  0.97152395  0.03283140     2.39200
O280        O  0.45259257  0.94239494  0.00552366    -0.89000
O281        O  0.51604286  0.99957637  0.00050042    -0.92700
C282        C  0.56372157  0.96551083  0.04442061     1.02000
C283        C  0.41200029  0.97036285  0.05436335     1.01900
C284        C  0.48990993  0.04782578  0.04819390     1.01800
C285        C  0.47972758  0.89669873  0.05164091     0.99700
H286        H  0.44409815  0.01649305  0.01845995     0.29400
O287        O  0.45507292  0.00349406  0.00539770    -1.01400
H288        H  0.52495600  0.92516708  0.01350172     0.29400
O289        O  0.51240962  0.93814823  0.00171919    -1.04000
O290        O  0.39307767  0.97307928  0.93069009    -0.81200
O291        O  0.56263359  0.96215298  0.91871354    -0.80700
O292        O  0.43605888  0.05749578  0.97201264    -0.79200
O293        O  0.42605091  0.88860395  0.97847805    -0.82500
O294        O  0.52632345  0.88145400  0.96717117    -0.80400
O295        O  0.53513123  0.05287582  0.96782258    -0.79000
O296        O  0.47438182  0.01921196  0.88765414    -0.80500
O297        O  0.46500930  0.92116071  0.89054249    -0.82500
O298        O  0.47893758  0.05454565  0.92416389    -0.79200
O299        O  0.46407443  0.88518154  0.92684521    -0.81900
O300        O  0.39860867  0.02346444  0.97749909    -0.77600
O301        O  0.56925754  0.01500943  0.96720973    -0.77600
O302        O  0.56324149  0.91645539  0.96483274    -0.77300
O303        O  0.39350215  0.92791764  0.97876119    -0.80800
O304        O  0.42558566  0.96837670  0.89185354    -0.80200
O305        O  0.52521615  0.96246306  0.88403271    -0.78500
Eu306      Eu  0.42199762  0.97424741  0.97727720     2.39800
Eu307      Eu  0.54190143  0.96684585  0.96899109     2.39600
Eu308      Eu  0.48478714  0.03091115  0.97226975     2.38400
Eu309      Eu  0.47796918  0.90869769  0.97451823     2.39900
Eu310      Eu  0.47743587  0.96963367  0.91208940     2.39800
O311        O  0.50741727  0.93772649  0.94162977    -0.93000
O312        O  0.45139774  0.00192344  0.94412943    -0.91800
C313        C  0.39897377  0.96973756  0.90277647     1.02200
C314        C  0.55310238  0.96035827  0.89156046     1.00900
C315        C  0.40824372  0.05028669  0.97421922     1.00300
C316        C  0.39946454  0.89985798  0.97896435     1.02300
C317        C  0.55402573  0.88916741  0.96409494     1.01300
C318        C  0.56216197  0.04301105  0.96684636     1.00100
C319        C  0.47490833  0.04651416  0.89693582     1.00200
C320        C  0.45961734  0.89447564  0.89987019     1.02800
H321        H  0.52339877  0.01030193  0.92648079     0.30100
O322        O  0.51133181  0.99874229  0.94003809    -1.05100
H323        H  0.43376925  0.93113929  0.93601707     0.32200
O324        O  0.44878096  0.94230846  0.94650788    -1.07700
C325        C  0.50549238  0.22111192  0.25742360     0.03000
C326        C  0.50669313  0.19879894  0.23553526    -0.13100
C327        C  0.50147056  0.20531534  0.20543747     0.00500
C328        C  0.49542632  0.23480689  0.19717221    -0.11700
C329        C  0.49449498  0.25782616  0.21839006     0.03000
C330        C  0.49940174  0.25083056  0.24882250    -0.11100
H331        H  0.51156999  0.17605497  0.24214430     0.08600
H332        H  0.49151825  0.23997796  0.17386764     0.06100
H333        H  0.49863906  0.26822411  0.26550787     0.06000
C334        C  0.49763924  0.73713084  0.24861107     0.03000
C335        C  0.47868989  0.75409811  0.23042569    -0.13100
C336        C  0.46963947  0.78253582  0.23885606     0.00500
C337        C  0.47694522  0.79275556  0.26736792    -0.11700
C338        C  0.49732311  0.77728755  0.28556438     0.03000
C339        C  0.50770743  0.74898744  0.27617840    -0.11100
H340        H  0.47353826  0.74619960  0.20812887     0.08600
H341        H  0.46982844  0.81492635  0.27377987     0.06100
H342        H  0.52410728  0.73707642  0.28933781     0.06000
C343        C  0.49252013  0.73733339  0.77507086     0.03000
C344        C  0.50840625  0.75572157  0.75532481    -0.13100
C345        C  0.49292435  0.77571309  0.73670128     0.00500
C346        C  0.46179918  0.77697293  0.73797265    -0.11700
C347        C  0.44567242  0.76099618  0.75967771     0.03000
C348        C  0.46148565  0.73958408  0.77654346    -0.11100
H349        H  0.53246709  0.75541821  0.75541822     0.08600
H350        H  0.45087954  0.79306518  0.72371883     0.06100
H351        H  0.45038859  0.72605112  0.79303178     0.06000
C352        C  0.51122834  0.25234554  0.72920877     0.03000
C353        C  0.49584253  0.22902588  0.74291523    -0.13100
C354        C  0.49144856  0.22838634  0.77363770     0.00500
C355        C  0.49953420  0.25346913  0.79043828    -0.11700
C356        C  0.51307537  0.27844078  0.77718206     0.03000
C357        C  0.51964518  0.27756864  0.74623562    -0.11100
H358        H  0.48904817  0.21013809  0.72947181     0.08600
H359        H  0.49612217  0.25339078  0.81430316     0.06100
H360        H  0.53174458  0.29566379  0.73588382     0.06000
O361        O  0.98436287  0.38475985  0.02481638    -0.80200
O362        O  0.97614852  0.55567610  0.01253364    -0.81800
O363        O  0.02739104  0.47505320  0.05986700    -0.78800
O364        O  0.93121965  0.47303039  0.04971164    -0.77200
O365        O  0.89661383  0.46856674  0.01223616    -0.79000
O366        O  0.06495971  0.47663300  0.02567829    -0.79900
O367        O  0.97443955  0.52173343  0.05064964    -0.81200
O368        O  0.97791789  0.42271852  0.05815395    -0.81500
Eu369      Eu  0.98120085  0.47085200  0.03070859     2.39200
O370        O  0.95231568  0.49756694  0.99584397    -0.89000
O371        O  0.01508795  0.44031856  0.00561852    -0.92700
C372        C  0.97993693  0.39473798  0.05133185     1.02000
C373        C  0.97318038  0.54870884  0.04039583     1.01900
C374        C  0.05496750  0.47748953  0.05251425     1.01800
C375        C  0.90442915  0.47218360  0.03973019     0.99700
H376        H  0.02243856  0.51529678  0.01342164     0.29400
O377        O  0.01187961  0.50118144  0.00105930    -1.01400
H378        H  0.94081539  0.42580567  0.01262082     0.29400
O379        O  0.95381504  0.43786171  0.00049764    -1.04000
O380        O  0.98512503  0.54643899  0.91533629    -0.81200
O381        O  0.99191502  0.37735091  0.93002325    -0.80700
O382        O  0.06786730  0.52132750  0.97375923    -0.79200
O383        O  0.89892804  0.51364925  0.95826063    -0.82500
O384        O  0.90209926  0.41495953  0.96579697    -0.80400
O385        O  0.07208919  0.42356725  0.98313983    -0.79000
O386        O  0.04123880  0.46058080  0.89053903    -0.80500
O387        O  0.94445013  0.45015038  0.88223428    -0.82500
O388        O  0.07379767  0.46474763  0.92977013    -0.79200
O389        O  0.90639837  0.45252371  0.91573281    -0.81900
O390        O  0.03020965  0.55494367  0.96668628    -0.77600
O391        O  0.03785526  0.38585180  0.98015825    -0.77600
O392        O  0.94000568  0.38138162  0.97147412    -0.77300
O393        O  0.93413669  0.55032237  0.95937513    -0.80800
O394        O  0.98827846  0.50980859  0.88021317    -0.80200
O395        O  0.99510053  0.40950633  0.89038158    -0.78500
Eu396      Eu  0.98301454  0.52705549  0.96583317     2.39800
Eu397      Eu  0.98789287  0.40730950  0.97530301     2.39600
Eu398      Eu  0.04529818  0.47069072  0.97537059     2.38400
Eu399      Eu  0.92496440  0.46491400  0.96551471     2.39900
Eu400      Eu  0.99031319  0.46209671  0.90936998     2.39800
O401        O  0.95933873  0.43430237  0.94081909    -0.93000
O402        O  0.01659136  0.49652204  0.93970254    -0.91800
C403        C  0.98642589  0.53758491  0.88809372     1.02200
C404        C  0.99445280  0.38291499  0.90196816     1.00900
C405        C  0.05788646  0.54820587  0.97028720     1.00300
C406        C  0.90696058  0.54142006  0.95715406     1.02300
C407        C  0.91232330  0.38811555  0.96798825     1.01300
C408        C  0.06461109  0.39579960  0.98292330     1.00100
C409        C  0.06763675  0.46134791  0.90189347     1.00200
C410        C  0.91694356  0.44715235  0.88959537     1.02800
H411        H  0.03270963  0.42348988  0.93531728     0.30100
O412        O  0.01894494  0.43657361  0.94526192    -1.05100
H413        H  0.94433737  0.50417525  0.92042236     0.32200
O414        O  0.95638367  0.49354641  0.93481458    -1.07700
C415        C  0.79249935  0.52472886  0.27583971     0.03000
C416        C  0.81034688  0.51096001  0.25433379    -0.13100
C417        C  0.79798512  0.49997568  0.22800826     0.00500
C418        C  0.76754043  0.50216051  0.22320725    -0.11700
C419        C  0.74937432  0.51702606  0.24346898     0.03000
C420        C  0.76168355  0.52813115  0.27030322    -0.11100
H421        H  0.83415676  0.50925795  0.25779335     0.08600
H422        H  0.75826532  0.49483878  0.20204786     0.06100
H423        H  0.74782053  0.53982235  0.28609418     0.06000
C424        C  0.26525858  0.51887053  0.21902925     0.03000
C425        C  0.25576501  0.52321950  0.24873651    -0.13100
C426        C  0.22537754  0.51968486  0.25588434     0.00500
C427        C  0.20524559  0.51105902  0.23349056    -0.11700
C428        C  0.21457450  0.50621445  0.20424050     0.03000
C429        C  0.24454390  0.50997961  0.19727823    -0.11100
H430        H  0.27144602  0.53040744  0.26565216     0.08600
H431        H  0.18188492  0.50876120  0.23881291     0.06100
H432        H  0.25182964  0.50647198  0.17453764     0.06000
C433        C  0.29166227  0.51197575  0.77443281     0.03000
C434        C  0.27019069  0.49548505  0.78998737    -0.13100
C435        C  0.24555559  0.48349139  0.77519325     0.00500
C436        C  0.24382764  0.48594263  0.74419109    -0.11700
C437        C  0.26250551  0.50540263  0.72871303     0.03000
C438        C  0.28722250  0.51799777  0.74367894    -0.11100
H439        H  0.27208176  0.49326414  0.81399234     0.08600
H440        H  0.22492072  0.47638557  0.73253108     0.06100
H441        H  0.30181440  0.53325435  0.73208696     0.06000
C442        C  0.78557683  0.51030260  0.73697111     0.03000
C443        C  0.76592597  0.52336662  0.75753547    -0.13100
C444        C  0.74784508  0.50488915  0.77537335     0.00500
C445        C  0.75071309  0.47379781  0.77343569    -0.11700
C446        C  0.77214887  0.46043749  0.75491870     0.03000
C447        C  0.78713229  0.47922865  0.73478890    -0.11100
H448        H  0.76510676  0.54735547  0.76000133     0.08600
H449        H  0.73749248  0.46048822  0.78844482     0.06100
H450        H  0.80278251  0.47028732  0.71900888     0.06000
C451        C  0.23912335  0.26306671  0.98018446     0.03000
C452        C  0.24619689  0.23314643  0.97353987    -0.13100
C453        C  0.27573761  0.22535043  0.96648758     0.00500
C454        C  0.29758429  0.24780630  0.96576770    -0.11700
C455        C  0.29084390  0.27749669  0.97251187     0.03000
C456        C  0.26159278  0.28471974  0.97992155    -0.11100
H457        H  0.22900797  0.21625770  0.97383253     0.08600
H458        H  0.32020460  0.24193766  0.96020170     0.06100
H459        H  0.25603999  0.30750786  0.98555067     0.06000
O460        O  0.51289425  0.46248039  0.09758494    -0.80200
O461        O  0.52292132  0.46534716  0.92589254    -0.81800
O462        O  0.46899844  0.42918404  0.00523041    -0.78800
O463        O  0.56502796  0.42560191  0.01649752    -0.77200
O464        O  0.60272641  0.45989510  0.01615375    -0.79000
O465        O  0.43334492  0.46555749  0.00425719    -0.79900
O466        O  0.52225987  0.42843904  0.96122348    -0.81200
O467        O  0.51047035  0.42745804  0.06058095    -0.81500
Eu468      Eu  0.51772242  0.45192734  0.01132903     2.39200
O469        O  0.55018409  0.48133883  0.98263444    -0.89000
O470        O  0.48645581  0.48204166  0.04070435    -0.92700
C471        C  0.50994441  0.43545519  0.08833033     1.02000
C472        C  0.52326742  0.43761616  0.93378122     1.01900
C473        C  0.44184915  0.43801820  0.00284361     1.01800
C474        C  0.59272383  0.43292104  0.01736421     0.99700
H475        H  0.47790702  0.47237192  0.96659032     0.29400
O476        O  0.48982409  0.48393935  0.98027998    -1.01400
H477        H  0.55874867  0.46755083  0.05693338     0.29400
O478        O  0.54753715  0.48042092  0.04374695    -1.04000
O479        O  0.52500939  0.56265544  0.92813242    -0.81200
O480        O  0.51738063  0.55961385  0.09754777    -0.80700
O481        O  0.43608712  0.51946814  0.95959351    -0.79200
O482        O  0.60725859  0.51386884  0.96655766    -0.82500
O483        O  0.60153539  0.51210934  0.06563881    -0.80400
O484        O  0.43239997  0.51684221  0.05838335    -0.79000
O485        O  0.47479501  0.60011621  0.00839243    -0.80500
O486        O  0.57037344  0.59453502  0.02352157    -0.82500
O487        O  0.43813168  0.56463600  0.00803465    -0.79200
O488        O  0.60490255  0.55721405  0.02437319    -0.81900
O489        O  0.47385808  0.51741229  0.92565608    -0.77600
O490        O  0.46692941  0.51324916  0.09591194    -0.77600
O491        O  0.56371956  0.51130421  0.09970080    -0.77300
O492        O  0.57187763  0.51504627  0.92982644    -0.80800
O493        O  0.52648278  0.59849524  0.96421899    -0.80200
O494        O  0.52123411  0.59699966  0.06289252    -0.78500
Eu495      Eu  0.52216232  0.51362807  0.95201501     2.39800
Eu496      Eu  0.51628368  0.51105415  0.07261032     2.39600
Eu497      Eu  0.45878316  0.51425169  0.00969350     2.38400
Eu498      Eu  0.58008265  0.50991855  0.01482701     2.39900
Eu499      Eu  0.52165381  0.57299850  0.01317561     2.39800
O500        O  0.54839640  0.53982159  0.04343005    -0.93000
O501        O  0.49166029  0.54384329  0.98158376    -0.91800
C502        C  0.52662216  0.59006972  0.93660691     1.02200
C503        C  0.51939365  0.58729187  0.09000299     1.00900
C504        C  0.44607831  0.51970576  0.93258871     1.00300
C505        C  0.59919921  0.51546693  0.93876223     1.02300
C506        C  0.59140358  0.51247214  0.09256344     1.01300
C507        C  0.43997686  0.51601643  0.08633147     1.00100
C508        C  0.44743692  0.59181351  0.00735082     1.00200
C509        C  0.59694257  0.58459084  0.02761671     1.02800
H510        H  0.47637759  0.55626284  0.05355755     0.30100
O511        O  0.48871076  0.54343166  0.04159151    -1.05100
H512        H  0.56591685  0.55509053  0.97270390     0.32200
O513        O  0.55252968  0.54254571  0.98388839    -1.07700
C514        C  0.71904677  0.74199707  0.96743930     0.03000
C515        C  0.73826403  0.72307895  0.95121092    -0.13100
C516        C  0.75929315  0.70528769  0.96676783     0.00500
C517        C  0.76030025  0.70623313  0.99799738    -0.11700
C518        C  0.73886708  0.72180661  0.01450339     0.03000
C519        C  0.72035083  0.74172095  0.99867913    -0.11100
H520        H  0.73641117  0.72168329  0.92716696     0.08600
H521        H  0.77622584  0.69196253  0.00911804     0.06100
H522        H  0.70445792  0.75543650  0.01026315     0.06000
C523        C  0.24077219  0.75464130  0.96864110     0.03000
C524        C  0.26592907  0.73661162  0.96620401    -0.13100
C525        C  0.26396367  0.70583740  0.96856306     0.00500
C526        C  0.23610152  0.69238201  0.97104990    -0.11700
C527        C  0.21004170  0.70959576  0.97189048     0.03000
C528        C  0.21235318  0.74119626  0.97112849    -0.11100
H529        H  0.28773260  0.74693904  0.96540546     0.08600
H530        H  0.23474561  0.66831780  0.97297609     0.06100
H531        H  0.19271080  0.75489819  0.97345025     0.06000
C532        C  0.76210367  0.23271489  0.97863747     0.03000
C533        C  0.74905018  0.25326433  0.99784721    -0.13100
C534        C  0.71868438  0.25254825  0.00340784     0.00500
C535        C  0.70233998  0.22735307  0.99480690    -0.11700
C536        C  0.71572330  0.20417245  0.97848689     0.03000
C537        C  0.74566026  0.20750680  0.96926388    -0.11100
H538        H  0.76183869  0.27254777  0.00489638     0.08600
H539        H  0.67876212  0.22640048  0.99943852     0.06100
H540        H  0.75547959  0.19151978  0.95418715     0.06000
C541        C  0.70450534  0.35982056  0.98641152    -0.17900
C542        C  0.68676015  0.38529424  0.98808486    -0.20100
C543        C  0.66048942  0.38491594  0.00474529     0.20500
C544        C  0.65257883  0.35893807  0.02075344    -0.03000
C545        C  0.67062074  0.33331912  0.01927208    -0.06100
C546        C  0.69629794  0.33366253  0.00149569     0.20800
C547        C  0.66221523  0.30698621  0.03442758     0.19000
C548        C  0.63650696  0.30697539  0.05194622    -0.17600
C549        C  0.61849867  0.33233400  0.05327697    -0.19800
C550        C  0.62602023  0.35814143  0.03724456     0.20500
C551        C  0.60696492  0.38279766  0.03658568    -0.32800
C552        C  0.61429292  0.40836673  0.01998437     0.01200
C553        C  0.64145168  0.40964607  0.00480803    -0.24100
C554        C  0.71253951  0.30745443  0.99786875    -0.28700
C555        C  0.70363018  0.28069093  0.01177293     0.06800
C556        C  0.67888752  0.28082046  0.03069414    -0.27400
H557        H  0.72429689  0.36036487  0.97276309     0.11600
H558        H  0.69318931  0.40504165  0.97574420     0.12700
H559        H  0.62985824  0.28708111  0.06392176     0.11800
H560        H  0.59830630  0.33152873  0.06629319     0.11000
H561        H  0.58615769  0.38196263  0.04863656     0.16400
H562        H  0.64707595  0.42933262  0.99194246     0.12300
H563        H  0.73117738  0.30759325  0.98265515     0.15200
H564        H  0.67205663  0.26037832  0.04161548     0.14900
C565        C  0.32402393  0.64094493  0.03276490    -0.17900
C566        C  0.35075655  0.62670204  0.03946125    -0.20100
C567        C  0.37507111  0.62958732  0.02031732     0.20500
C568        C  0.37303421  0.64795637  0.99479534    -0.03000
C569        C  0.34598979  0.66215899  0.98792434    -0.06100
C570        C  0.32127140  0.65815360  0.00677604     0.20800
C571        C  0.34347418  0.67977243  0.96191517     0.19000
C572        C  0.36828051  0.68367569  0.94346229    -0.17600
C573        C  0.39515204  0.66940198  0.95020326    -0.19800
C574        C  0.39759782  0.65108912  0.97553607     0.20500
C575        C  0.42349248  0.63453639  0.98117922    -0.32800
C576        C  0.42445686  0.61463200  0.00537071     0.01200
C577        C  0.40080384  0.61307755  0.02540122    -0.24100
C578        C  0.29417799  0.67139215  0.99934055    -0.28700
C579        C  0.29146672  0.68880294  0.97348369     0.06800
C580        C  0.31616275  0.69308604  0.95488822    -0.27400
H581        H  0.30532429  0.63801982  0.04760221     0.11600
H582        H  0.35220190  0.61283585  0.05922033     0.12700
H583        H  0.36675270  0.69736120  0.92356214     0.11800
H584        H  0.41379958  0.67215297  0.93526546     0.11000
H585        H  0.44189376  0.63543517  0.96568682     0.16400
H586        H  0.40190060  0.59769701  0.04409300     0.12300
H587        H  0.27536310  0.66893138  0.01415636     0.15200
H588        H  0.31408882  0.70700790  0.93517951     0.14900
C589        C  0.62686190  0.68655939  0.05560539    -0.17900
C590        C  0.64935492  0.70767960  0.05964198    -0.20100
C591        C  0.67924588  0.69888666  0.05899011     0.20500
C592        C  0.68647672  0.66837417  0.05720691    -0.03000
C593        C  0.66390678  0.64710314  0.05343026    -0.06100
C594        C  0.63405205  0.65643248  0.05130521     0.20800
C595        C  0.67144904  0.61686599  0.04950133     0.19000
C596        C  0.70124056  0.60788258  0.05177953    -0.17600
C597        C  0.72368885  0.62911138  0.05534508    -0.19800
C598        C  0.71650100  0.65950786  0.05656410     0.20500
C599        C  0.73842977  0.68132331  0.05295122    -0.32800
C600        C  0.72965857  0.71050923  0.04487303     0.01200
C601        C  0.70193332  0.72000612  0.05591261    -0.24100
C602        C  0.61215836  0.63576136  0.04343873    -0.28700
C603        C  0.61980563  0.60594847  0.03752054     0.06800
C604        C  0.64930870  0.59644348  0.04179664    -0.27400
H605        H  0.60397097  0.69396972  0.05446940     0.11600
H606        H  0.64344638  0.73103925  0.06111052     0.12700
H607        H  0.70728973  0.58464977  0.04925732     0.11800
H608        H  0.74666800  0.62193370  0.05505591     0.11000
H609        H  0.76118586  0.67413865  0.05034685     0.16400
H610        H  0.69609440  0.74339819  0.05563846     0.12300
H611        H  0.58932875  0.64314356  0.04111072     0.15200
H612        H  0.65532405  0.57334963  0.03812892     0.14900
C613        C  0.39344559  0.30917891  0.99648203    -0.17900
C614        C  0.41426433  0.33175532  0.00133257    -0.20100
C615        C  0.40671803  0.36164563  0.99600539     0.20500
C616        C  0.37834111  0.36885121  0.98467390    -0.03000
C617        C  0.35743755  0.34601256  0.97946120    -0.06100
C618        C  0.36484654  0.31614128  0.98602865     0.20800
C619        C  0.32891890  0.35315258  0.96844505     0.19000
C620        C  0.32179502  0.38296466  0.96203093    -0.17600
C621        C  0.34245784  0.40565750  0.96742253    -0.19800
C622        C  0.37064430  0.39888574  0.97913507     0.20500
C623        C  0.39118381  0.42157313  0.98560099    -0.32800
C624        C  0.41940775  0.41452835  0.99726689     0.01200
C625        C  0.42699276  0.38444020  0.00214923    -0.24100
C626        C  0.34327600  0.29385863  0.98301068    -0.28700
C627        C  0.31440535  0.30082823  0.97296457     0.06800
C628        C  0.30778094  0.33048184  0.96480506    -0.27400
H629        H  0.39956914  0.28631246  0.00134465     0.11600
H630        H  0.43610425  0.32588409  0.00976974     0.12700
H631        H  0.30002323  0.38880267  0.95339995     0.11800
H632        H  0.33626254  0.42854308  0.96276134     0.11000
H633        H  0.38532076  0.44461656  0.98124392     0.16400
H634        H  0.44871001  0.37865731  0.01100114     0.12300
H635        H  0.34874871  0.27130693  0.98974065     0.15200
H636        H  0.28597334  0.33609977  0.95612697     0.14900
C637        C  0.62509063  0.52390660  0.83185390    -0.17900
C638        C  0.64593188  0.52387408  0.80881547    -0.20100
C639        C  0.67642775  0.52229019  0.81524992     0.20500
C640        C  0.68602141  0.52146568  0.84532028    -0.03000
C641        C  0.66489625  0.52141288  0.86865179    -0.06100
C642        C  0.63432722  0.52227503  0.86178668     0.20800
C643        C  0.67431477  0.51961558  0.89872667     0.19000
C644        C  0.70489531  0.51857302  0.90513527    -0.17600
C645        C  0.72581437  0.51836714  0.88203775    -0.19800
C646        C  0.71661365  0.51942937  0.85203822     0.20500
C647        C  0.73726086  0.51699820  0.82865264    -0.32800
C648        C  0.72769692  0.51660918  0.79867126     0.01200
C649        C  0.69733331  0.51996841  0.79215847    -0.24100
C650        C  0.61341838  0.52079868  0.88483915    -0.28700
C651        C  0.62233851  0.51822607  0.91499888     0.06800
C652        C  0.65301389  0.51817258  0.92172495    -0.27400
H653        H  0.60166294  0.52466947  0.82621544     0.11600
H654        H  0.63814742  0.52450170  0.78590896     0.12700
H655        H  0.71264522  0.51732159  0.92802846     0.11800
H656        H  0.74920971  0.51683967  0.88764903     0.11000
H657        H  0.76058300  0.51351312  0.83374444     0.16400
H658        H  0.68985134  0.51878317  0.76915820     0.12300
H659        H  0.59000960  0.52121496  0.87906385     0.15200
H660        H  0.66033673  0.51648062  0.94473555     0.14900
C661        C  0.39552479  0.49863019  0.80525452    -0.17900
C662        C  0.41656225  0.49823310  0.82837129    -0.20100
C663        C  0.41040408  0.51174119  0.85586623     0.20500
C664        C  0.38308299  0.52655362  0.85985171    -0.03000
C665        C  0.36196851  0.52731463  0.83632166    -0.06100
C666        C  0.36799825  0.51274844  0.80908893     0.20800
C667        C  0.33432964  0.54144104  0.84053675     0.19000
C668        C  0.32843077  0.55554870  0.86781598    -0.17600
C669        C  0.34927866  0.55467113  0.89115201    -0.19800
C670        C  0.37648642  0.53978209  0.88760684     0.20500
C671        C  0.39699160  0.53744350  0.91139072    -0.32800
C672        C  0.42428817  0.52252334  0.90759690     0.01200
C673        C  0.43088116  0.51013486  0.87957383    -0.24100
C674        C  0.34576282  0.51092506  0.78695039    -0.28700
C675        C  0.31748842  0.52312151  0.79189957     0.06800
C676        C  0.31241815  0.53953788  0.81816519    -0.27400
H677        H  0.40056433  0.48733410  0.78455945     0.11600
H678        H  0.43745957  0.48679178  0.82494019     0.12700
H679        H  0.30733808  0.56657818  0.87139729     0.11800
H680        H  0.34389101  0.56520181  0.91216418     0.11000
H681        H  0.39179392  0.54735169  0.93276993     0.16400
H682        H  0.45173235  0.49849744  0.87641599     0.12300
H683        H  0.34958605  0.49784159  0.76703342     0.15200
H684        H  0.29051358  0.54871503  0.82216756     0.14900
C685        C  0.32586904  0.56761449  0.14368625    -0.17900
C686        C  0.34927444  0.56573084  0.12338749    -0.20100
C687        C  0.37152822  0.54410024  0.12698364     0.20500
C688        C  0.37088336  0.52503200  0.15210230    -0.03000
C689        C  0.34701222  0.52672364  0.17249864    -0.06100
C690        C  0.32417338  0.54776620  0.16785505     0.20800
C691        C  0.34519128  0.50637968  0.19655899     0.19000
C692        C  0.36827823  0.48572351  0.20094332    -0.17600
C693        C  0.39225974  0.48446789  0.18109427    -0.19800
C694        C  0.39345432  0.50356635  0.15621502     0.20500
C695        C  0.41632293  0.50111066  0.13497586    -0.32800
C696        C  0.41629208  0.51911707  0.10913720     0.01200
C697        C  0.39396808  0.54077245  0.10553545    -0.24100
C698        C  0.29904662  0.54730929  0.18617043    -0.28700
C699        C  0.29578702  0.52549693  0.20850631     0.06800
C700        C  0.31947077  0.50584410  0.21447821    -0.27400
H701        H  0.30853914  0.58397776  0.13990116     0.11600
H702        H  0.34960238  0.58078426  0.10448208     0.12700
H703        H  0.36744977  0.47004163  0.21933592     0.11800
H704        H  0.40946752  0.46795210  0.18474379     0.11000
H705        H  0.43362397  0.48455165  0.13802247     0.16400
H706        H  0.39419329  0.55515553  0.08606503     0.12300
H707        H  0.28068161  0.56225555  0.18135293     0.15200
H708        H  0.31688504  0.48873152  0.23137720     0.14900
C709        C  0.63456311  0.47378375  0.18625772    -0.17900
C710        C  0.65555374  0.47562020  0.20933015    -0.20100
C711        C  0.67534706  0.49975506  0.21083507     0.20500
C712        C  0.67372426  0.52247614  0.18901728    -0.03000
C713        C  0.65301700  0.52025765  0.16530756    -0.06100
C714        C  0.63331170  0.49579710  0.16399631     0.20800
C715        C  0.65257013  0.54207509  0.14252168     0.19000
C716        C  0.67221079  0.56632213  0.14410784    -0.17600
C717        C  0.69256924  0.56862706  0.16771429    -0.19800
C718        C  0.69373357  0.54666602  0.19007693     0.20500
C719        C  0.71591151  0.54734398  0.21221864    -0.32800
C720        C  0.71909190  0.52362122  0.23257559     0.01200
C721        C  0.69803359  0.50050194  0.23249286    -0.24100
C722        C  0.61301963  0.49356302  0.14022079    -0.28700
C723        C  0.61296155  0.51484848  0.11722292     0.06800
C724        C  0.63274864  0.53902840  0.11840851    -0.27400
H725        H  0.61967281  0.45481914  0.18550440     0.11600
H726        H  0.65659708  0.45790698  0.22577148     0.12700
H727        H  0.67210055  0.58330360  0.12686780     0.11800
H728        H  0.70790749  0.58723684  0.16808992     0.11000
H729        H  0.73282551  0.56454959  0.21149632     0.16400
H730        H  0.70111451  0.48166575  0.24739532     0.12300
H731        H  0.59764462  0.47497265  0.13922465     0.15200
H732        H  0.63233858  0.55564925  0.10079373     0.14900
C733        C  0.85882828  0.67044256  0.93919990    -0.17900
C734        C  0.87985424  0.64740022  0.93973606    -0.20100
C735        C  0.87114015  0.61782029  0.94520502     0.20500
C736        C  0.84082030  0.61130707  0.94943971    -0.03000
C737        C  0.81950963  0.63460898  0.94871691    -0.06100
C738        C  0.82862249  0.66439495  0.94400723     0.20800
C739        C  0.78931205  0.62826364  0.95404871     0.19000
C740        C  0.78060680  0.59864982  0.95938601    -0.17600
C741        C  0.80165269  0.57560528  0.95993012    -0.19800
C742        C  0.83188152  0.58167699  0.95526863     0.20500
C743        C  0.85333421  0.55878902  0.95701253    -0.32800
C744        C  0.88377920  0.56512067  0.95336789     0.01200
C745        C  0.89230536  0.59481054  0.94714197    -0.24100
C746        C  0.80772266  0.68773488  0.94601193    -0.28700
C747        C  0.77782130  0.68172723  0.95272558     0.06800
C748        C  0.76868183  0.65180052  0.95575056    -0.27400
H749        H  0.86629955  0.69311653  0.93559729     0.11600
H750        H  0.90305745  0.65281483  0.93637914     0.12700
H751        H  0.75753929  0.59335956  0.96369706     0.11800
H752        H  0.79431651  0.55305568  0.96448430     0.11000
H753        H  0.84636130  0.53619396  0.96193431     0.16400
H754        H  0.91557026  0.60019959  0.94411135     0.12300
H755        H  0.81512649  0.71069470  0.94475732     0.15200
H756        H  0.74593172  0.64708060  0.96205173     0.14900
C757        C  0.80144264  0.31650171  0.92646817    -0.17900
C758        C  0.82067391  0.34099248  0.92815945    -0.20100
C759        C  0.84623273  0.33981385  0.94620522     0.20500
C760        C  0.85270740  0.31342688  0.96226011    -0.03000
C761        C  0.83304253  0.28887038  0.96092406    -0.06100
C762        C  0.80722576  0.29050748  0.94306705     0.20800
C763        C  0.83837511  0.26336395  0.97873617     0.19000
C764        C  0.86422050  0.26199210  0.99634679    -0.17600
C765        C  0.88417243  0.28590801  0.99693957    -0.19800
C766        C  0.87835468  0.31186985  0.98039417     0.20500
C767        C  0.89754762  0.33641398  0.98202995    -0.32800
C768        C  0.89115278  0.36290642  0.96642802     0.01200
C769        C  0.86530330  0.36455124  0.94869430    -0.24100
C770        C  0.78639259  0.26723330  0.94411232    -0.28700
C771        C  0.78978005  0.24351977  0.96456558     0.06800
C772        C  0.81660874  0.24089677  0.98056274    -0.27400
H773        H  0.78154198  0.31823833  0.91286515     0.11600
H774        H  0.81536853  0.36097477  0.91560878     0.12700
H775        H  0.86871338  0.24264594  0.01015621     0.11800
H776        H  0.90381184  0.28438594  0.01094984     0.11000
H777        H  0.91732327  0.33507019  0.99589643     0.16400
H778        H  0.86037006  0.38480905  0.93641959     0.12300
H779        H  0.76536596  0.26983384  0.93244597     0.15200
H780        H  0.81902279  0.22321626  0.99692501     0.14900
C781        C  0.13494964  0.60714957  0.02299222    -0.17900
C782        C  0.15440137  0.63150339  0.02424341    -0.20100
C783        C  0.15652353  0.65144446  0.00014238     0.20500
C784        C  0.13815015  0.64734595  0.97489416    -0.03000
C785        C  0.11821334  0.62287959  0.97376723    -0.06100
C786        C  0.11702131  0.60238379  0.99772055     0.20800
C787        C  0.09989358  0.61863659  0.94847507     0.19000
C788        C  0.10175619  0.63883665  0.92455236    -0.17600
C789        C  0.12196412  0.66264339  0.92538938    -0.19800
C790        C  0.14044017  0.66704677  0.95035834     0.20500
C791        C  0.16214118  0.68979821  0.95064409    -0.32800
C792        C  0.18153264  0.69304340  0.97516910     0.01200
C793        C  0.17780852  0.67438962  0.00021163    -0.24100
C794        C  0.09800559  0.57749066  0.99595664    -0.28700
C795        C  0.07939914  0.57331951  0.97099899     0.06800
C796        C  0.08021863  0.59419738  0.94750035    -0.27400
H797        H  0.13413992  0.59186040  0.04171540     0.11600
H798        H  0.16830609  0.63435454  0.04383631     0.12700
H799        H  0.08788955  0.63594890  0.90493834     0.11800
H800        H  0.12336359  0.67744575  0.90632020     0.11000
H801        H  0.16533296  0.70357896  0.93102709     0.16400
H802        H  0.19305398  0.67642336  0.01891598     0.12300
H803        H  0.09710110  0.56173664  0.01430692     0.15200
H804        H  0.06580454  0.59113062  0.92829080     0.14900
C805        C  0.11804162  0.31126301  0.93915703    -0.17900
C806        C  0.14171251  0.29105576  0.93952625    -0.20100
C807        C  0.16192813  0.29062006  0.96347349     0.20500
C808        C  0.15785292  0.31038895  0.98761524    -0.03000
C809        C  0.13421864  0.33108138  0.98704840    -0.06100
C810        C  0.11430233  0.33152379  0.96262874     0.20800
C811        C  0.13103010  0.35186185  0.01047669     0.19000
C812        C  0.15086509  0.35105282  0.03471579    -0.17600
C813        C  0.17417520  0.33042264  0.03536220    -0.19800
C814        C  0.17813684  0.31038109  0.01169874     0.20500
C815        C  0.20306034  0.29167965  0.01078605    -0.32800
C816        C  0.20844818  0.27356933  0.98577704     0.01200
C817        C  0.18713970  0.27213617  0.96282591    -0.24100
C818        C  0.09127834  0.35252057  0.96189114    -0.28700
C819        C  0.08842898  0.37356133  0.98479598     0.06800
C820        C  0.10832856  0.37329575  0.00899218    -0.27400
H821        H  0.10294482  0.31139679  0.92024012     0.11600
H822        H  0.14452574  0.27612822  0.92079387     0.12700
H823        H  0.14861931  0.36667131  0.05296554     0.11800
H824        H  0.18957918  0.33066425  0.05401987     0.11000
H825        H  0.21963948  0.29297802  0.02838480     0.16400
H826        H  0.19148491  0.25860538  0.94332465     0.12300
H827        H  0.07593779  0.35302682  0.94314279     0.15200
H828        H  0.10591809  0.38955660  0.02667744     0.14900
C829        C  0.79431583  0.40891937  0.84184145    -0.17900
C830        C  0.81679672  0.41187397  0.86325101    -0.20100
C831        C  0.84587474  0.41890477  0.85453145     0.20500
C832        C  0.85308926  0.42004595  0.82401638    -0.03000
C833        C  0.83050864  0.41673538  0.80251709    -0.06100
C834        C  0.80076846  0.41299707  0.81154377     0.20800
C835        C  0.83711865  0.41995746  0.77201942     0.19000
C836        C  0.86669834  0.42381847  0.76306672    -0.17600
C837        C  0.88912685  0.42763085  0.78446112    -0.19800
C838        C  0.88227903  0.42700541  0.81498040     0.20500
C839        C  0.90354317  0.43490551  0.83653174    -0.32800
C840        C  0.89576981  0.43612212  0.86686874     0.01200
C841        C  0.86731556  0.42669456  0.87572339    -0.24100
C842        C  0.77796245  0.41774261  0.79066589    -0.28700
C843        C  0.78514309  0.43029226  0.76271010     0.06800
C844        C  0.81367852  0.42342804  0.75165282    -0.27400
H845        H  0.77163450  0.40565464  0.84912281     0.11600
H846        H  0.81108837  0.41047001  0.88665751     0.12700
H847        H  0.87213916  0.42618852  0.73966616     0.11800
H848        H  0.91151284  0.43248376  0.77713906     0.11000
H849        H  0.92564009  0.44139129  0.82955193     0.16400
H850        H  0.86135237  0.42660199  0.89910789     0.12300
H851        H  0.75522081  0.41730740  0.79829512     0.15200
H852        H  0.81896152  0.42705613  0.72843340     0.14900
C853        C  0.13749075  0.48806037  0.78800431    -0.17900
C854        C  0.11225850  0.48421310  0.80544267    -0.20100
C855        C  0.11462405  0.47116263  0.83376049     0.20500
C856        C  0.14245376  0.46094788  0.84431364    -0.03000
C857        C  0.16782686  0.46435199  0.82648403    -0.06100
C858        C  0.16530131  0.47845531  0.79848662     0.20800
C859        C  0.19582483  0.45468770  0.83710206     0.19000
C860        C  0.19803180  0.44122132  0.86531653    -0.17600
C861        C  0.17285881  0.43818054  0.88322680    -0.19800
C862        C  0.14510487  0.44839755  0.87308122     0.20500
C863        C  0.12017450  0.44745068  0.89156525    -0.32800
C864        C  0.09275717  0.45873741  0.88144537     0.01200
C865        C  0.08986367  0.46946165  0.85221525    -0.24100
C866        C  0.19073903  0.48366310  0.78177449    -0.28700
C867        C  0.21885556  0.47435691  0.79210554     0.06800
C868        C  0.22117410  0.45945738  0.81966334    -0.27400
H869        H  0.13532130  0.49889116  0.76646759     0.11600
H870        H  0.09103457  0.49216391  0.79712044     0.12700
H871        H  0.21932482  0.43364052  0.87379290     0.11800
H872        H  0.17519395  0.42835522  0.90521989     0.11000
H873        H  0.12224106  0.43866068  0.91403940     0.16400
H874        H  0.06870325  0.47813148  0.84441540     0.12300
H875        H  0.18862674  0.49623928  0.76119990     0.15200
H876        H  0.24270927  0.45222372  0.82782293     0.14900
C877        C  0.12356476  0.45463438  0.17026616    -0.17900
C878        C  0.10026645  0.45162970  0.14970829    -0.20100
C879        C  0.09995122  0.46858062  0.12337244     0.20500
C880        C  0.12362905  0.48840042  0.11746478    -0.03000
C881        C  0.14709067  0.49140648  0.13815454    -0.06100
C882        C  0.14688057  0.47466594  0.16482630     0.20800
C883        C  0.17051332  0.51149840  0.13233836     0.19000
C884        C  0.17052406  0.52805962  0.10576210    -0.17600
C885        C  0.14733418  0.52499947  0.08519511    -0.19800
C886        C  0.12382760  0.50533531  0.09092628     0.20500
C887        C  0.10067769  0.50208065  0.07038348    -0.32800
C888        C  0.07724067  0.48224708  0.07597163     0.01200
C889        C  0.07662314  0.46586497  0.10265186    -0.24100
C890        C  0.16962974  0.47877215  0.18587441    -0.28700
C891        C  0.19249469  0.49946014  0.18062918     0.06800
C892        C  0.19310844  0.51528112  0.15354843    -0.27400
H893        H  0.12318887  0.44151572  0.19058345     0.11600
H894        H  0.08242967  0.43614589  0.15447020     0.12700
H895        H  0.18835611  0.54354702  0.10098851     0.11800
H896        H  0.14773941  0.53806198  0.06483419     0.11000
H897        H  0.10096819  0.51483066  0.04979435     0.16400
H898        H  0.05861362  0.45035584  0.10673278     0.12300
H899        H  0.16931878  0.46626399  0.20659126     0.15200
H900        H  0.21052045  0.53147375  0.14952036     0.14900
C901        C  0.86530730  0.53535464  0.15162840    -0.17900
C902        C  0.87658456  0.53319637  0.12285811    -0.20100
C903        C  0.87168680  0.50742989  0.10597171     0.20500
C904        C  0.85474191  0.48375571  0.11768735    -0.03000
C905        C  0.84279997  0.48619066  0.14646888    -0.06100
C906        C  0.84838567  0.51202935  0.16353830     0.20800
C907        C  0.82504951  0.46299807  0.15802730     0.19000
C908        C  0.82011817  0.43724810  0.14096885    -0.17600
C909        C  0.83288692  0.43438402  0.11271846    -0.19800
C910        C  0.85019304  0.45752309  0.10084749     0.20500
C911        C  0.86415371  0.45453294  0.07307996    -0.32800
C912        C  0.88203413  0.47769516  0.06226167     0.01200
C913        C  0.88470488  0.50440592  0.07810876    -0.24100
C914        C  0.83589748  0.51470265  0.19174701    -0.28700
C915        C  0.81688419  0.49254747  0.20260654     0.06800
C916        C  0.81184238  0.46649807  0.18601860    -0.27400
H917        H  0.86951569  0.55540051  0.16441794     0.11600
H918        H  0.88938037  0.55154104  0.11386982     0.12700
H919        H  0.80651781  0.41927299  0.14954094     0.11800
H920        H  0.82921187  0.41410470  0.10015282     0.11000
H921        H  0.86280893  0.43368485  0.06096243     0.16400
H922        H  0.89904393  0.52194790  0.06970961     0.12300
H923        H  0.83912002  0.53507765  0.20434986     0.15200
H924        H  0.79678988  0.44963601  0.19445265     0.14900
C925        C  0.54841062  0.33601077  0.89768896    -0.17900
C926        C  0.54806648  0.31429068  0.87529492    -0.20100
C927        C  0.53600429  0.32063213  0.84701672     0.20500
C928        C  0.52451200  0.34927101  0.84109926    -0.03000
C929        C  0.52505199  0.37133335  0.86372022    -0.06100
C930        C  0.53678052  0.36455776  0.89224583     0.20800
C931        C  0.51339513  0.39995601  0.85794669     0.19000
C932        C  0.50126707  0.40622828  0.82965811    -0.17600
C933        C  0.50038067  0.38428262  0.80741318    -0.19800
C934        C  0.51188627  0.35565943  0.81284416     0.20500
C935        C  0.51010235  0.33306755  0.79096417    -0.32800
C936        C  0.52069447  0.30413291  0.79707541     0.01200
C937        C  0.53436895  0.29850889  0.82494376    -0.24100
C938        C  0.53627891  0.38623871  0.91493920    -0.28700
C939        C  0.52454598  0.41487045  0.90949213     0.06800
C940        C  0.51357539  0.42160460  0.88068108    -0.27400
H941        H  0.55756073  0.33037628  0.91938637     0.11600
H942        H  0.55688692  0.29234714  0.88024465     0.12700
H943        H  0.49209636  0.42805377  0.82483268     0.11800
H944        H  0.49047796  0.38966288  0.78598738     0.11000
H945        H  0.49911701  0.33753301  0.76984505     0.16400
H946        H  0.54263187  0.27633144  0.82991028     0.12300
H947        H  0.54507733  0.38083174  0.93685319     0.15200
H948        H  0.50438376  0.44349708  0.87615349     0.14900
C949        C  0.52402695  0.63731781  0.80649977    -0.17900
C950        C  0.52781421  0.61643212  0.82942367    -0.20100
C951        C  0.52774967  0.62545269  0.85939163     0.20500
C952        C  0.52488664  0.65593882  0.86633900    -0.03000
C953        C  0.52092789  0.67705236  0.84316964    -0.06100
C954        C  0.52001954  0.66758542  0.81312568     0.20800
C955        C  0.51643069  0.70736641  0.85014153     0.19000
C956        C  0.51733429  0.71648238  0.88009231    -0.17600
C957        C  0.52163734  0.69560596  0.90301366    -0.19800
C958        C  0.52478018  0.66518554  0.89643436     0.20500
C959        C  0.52663669  0.64377666  0.91938767    -0.32800
C960        C  0.52811420  0.61314402  0.91265338     0.01200
C961        C  0.52943219  0.60436507  0.88248194    -0.24100
C962        C  0.51350858  0.68823218  0.79039339    -0.28700
C963        C  0.50748450  0.71806954  0.79736002     0.06800
C964        C  0.50961798  0.72767497  0.82716762    -0.27400
H965        H  0.52344722  0.62967172  0.78359710     0.11600
H966        H  0.53012979  0.59309488  0.82371964     0.12700
H967        H  0.51406448  0.73969014  0.88584415     0.11800
H968        H  0.52168036  0.70316594  0.92595133     0.11000
H969        H  0.52581259  0.65093283  0.94244103     0.16400
H970        H  0.53091708  0.58094310  0.87680324     0.12300
H971        H  0.51116708  0.68075944  0.76751777     0.15200
H972        H  0.50428064  0.75060234  0.83257039     0.14900
C973        C  0.46910743  0.62465010  0.17913525    -0.17900
C974        C  0.46746050  0.64395300  0.20347630    -0.20100
C975        C  0.48994147  0.66498881  0.20870348     0.20500
C976        C  0.51457258  0.66637411  0.18938713    -0.03000
C977        C  0.51610521  0.64701829  0.16455393    -0.06100
C978        C  0.49318735  0.62613722  0.15948984     0.20800
C979        C  0.54013720  0.64898286  0.14447654     0.19000
C980        C  0.56274629  0.66991023  0.14991077    -0.17600
C981        C  0.56112277  0.68923542  0.17444331    -0.19800
C982        C  0.53692752  0.68794572  0.19411913     0.20500
C983        C  0.53360266  0.70902651  0.21718060    -0.32800
C984        C  0.50813385  0.70881167  0.23535037     0.01200
C985        C  0.48713441  0.68592184  0.23171120    -0.24100
C986        C  0.49458627  0.60715546  0.13480384    -0.28700
C987        C  0.51821294  0.60902188  0.11462061     0.06800
C988        C  0.54093167  0.63008164  0.11936113    -0.27400
H989        H  0.45131797  0.60878099  0.17545327     0.11600
H990        H  0.44830204  0.64276514  0.21795109     0.12700
H991        H  0.58147319  0.67165321  0.13492178     0.11800
H992        H  0.57851915  0.70561884  0.17767936     0.11000
H993        H  0.54930312  0.72724936  0.21916216     0.16400
H994        H  0.46702603  0.68631696  0.24492323     0.12300
H995        H  0.47711936  0.59088879  0.13110640     0.15200
H996        H  0.55938701  0.63125160  0.10395635     0.14900
C997        C  0.45376194  0.34790179  0.12329538    -0.17900
C998        C  0.45026120  0.32390245  0.14292944    -0.20100
C999        C  0.46977810  0.32009234  0.16717605     0.20500
C1000       C  0.49204238  0.34153339  0.17266379    -0.03000
C1001       C  0.49537668  0.36600803  0.15298035    -0.06100
C1002       C  0.47668863  0.36863003  0.12769862     0.20800
C1003       C  0.51812496  0.38712870  0.15790522     0.19000
C1004       C  0.53676223  0.38397665  0.18297574    -0.17600
C1005       C  0.53379097  0.35942083  0.20217276    -0.19800
C1006       C  0.51190560  0.33771442  0.19688729     0.20500
C1007       C  0.51072090  0.31139910  0.21412731    -0.32800
C1008       C  0.49005678  0.28886430  0.20720448     0.01200
C1009       C  0.46860630  0.29425547  0.18479829    -0.24100
C1010       C  0.48175295  0.39138197  0.10679641    -0.28700
C1011       C  0.50477772  0.41206648  0.11109592     0.06800
C1012       C  0.52234035  0.41040990  0.13717354    -0.27400
H1013       H  0.43897904  0.34983199  0.10422656     0.11600
H1014       H  0.43292463  0.30772120  0.13852380     0.12700
H1015       H  0.55423509  0.40004193  0.18725471     0.11800
H1016       H  0.54912738  0.35701457  0.22073568     0.11000
H1017       H  0.52734847  0.30742826  0.23126156     0.16400
H1018       H  0.45234277  0.27717802  0.17959545     0.12300
H1019       H  0.46777885  0.39303392  0.08707236     0.15200
H1020       H  0.53995434  0.42653111  0.14069246     0.14900
C1021       C  0.62039803  0.16592049  0.93955546    -0.17900
C1022       C  0.59841412  0.14382805  0.93911932    -0.20100
C1023       C  0.60379688  0.11569689  0.95184400     0.20500
C1024       C  0.63193623  0.10957038  0.96450493    -0.03000
C1025       C  0.65418389  0.13199004  0.96504296    -0.06100
C1026       C  0.64819683  0.16038077  0.95281017     0.20800
C1027       C  0.68201440  0.12630949  0.97865060     0.19000
C1028       C  0.68749123  0.09799779  0.99098229    -0.17600
C1029       C  0.66556961  0.07573991  0.99022552    -0.19800
C1030       C  0.63760776  0.08132112  0.97724410     0.20500
C1031       C  0.61507832  0.05940286  0.97726284    -0.32800
C1032       C  0.58663348  0.06555874  0.96531816     0.01200
C1033       C  0.58136453  0.09382735  0.95253778    -0.24100
C1034       C  0.66956311  0.18313119  0.95519055    -0.28700
C1035       C  0.69687228  0.17815018  0.96989332     0.06800
C1036       C  0.70329430  0.14938277  0.98080499    -0.27400
H1037       H  0.61543443  0.18757749  0.93001010     0.11600
H1038       H  0.57701363  0.14890078  0.92915539     0.12700
H1039       H  0.70863267  0.09316860  0.00160443     0.11800
H1040       H  0.67036885  0.05423854  0.00019685     0.11000
H1041       H  0.61941997  0.03784426  0.98734988     0.16400
H1042       H  0.55971217  0.09883306  0.94307125     0.12300
H1043       H  0.66441003  0.20526668  0.94687995     0.15200
H1044       H  0.72406099  0.14549387  0.99254075     0.14900
C1045       C  0.29950316  0.81873539  0.02943638    -0.17900
C1046       C  0.32549008  0.83595182  0.03023543    -0.20100
C1047       C  0.33615055  0.84972655  0.00424592     0.20500
C1048       C  0.31977226  0.84689602  0.97739258    -0.03000
C1049       C  0.29360978  0.82931560  0.97654925    -0.06100
C1050       C  0.28373099  0.81478929  0.00259820     0.20800
C1051       C  0.27842279  0.82479577  0.94926787     0.19000
C1052       C  0.28837935  0.83954400  0.92352540    -0.17600
C1053       C  0.31378759  0.85758573  0.92451398    -0.19800
C1054       C  0.33004444  0.86082235  0.95114682     0.20500
C1055       C  0.35654720  0.87743051  0.95190897    -0.32800
C1056       C  0.37336009  0.87976744  0.97835071     0.01200
C1057       C  0.36295053  0.86605690  0.00453202    -0.24100
C1058       C  0.26001411  0.79443154  0.00079457    -0.28700
C1059       C  0.24750741  0.78670793  0.97295991     0.06800
C1060       C  0.25538010  0.80356052  0.94766776    -0.27400
H1061       H  0.29230674  0.80764840  0.04964192     0.11600
H1062       H  0.33756919  0.83802272  0.05110062     0.12700
H1063       H  0.27698119  0.83647587  0.90240525     0.11800
H1064       H  0.32122330  0.86832369  0.90420494     0.11000
H1065       H  0.36420228  0.88860512  0.93189014     0.16400
H1066       H  0.37542454  0.86856704  0.02513459     0.12300
H1067       H  0.25457035  0.78107712  0.02021334     0.15200
H1068       H  0.24636427  0.79736607  0.92607593     0.14900
C1069       C  0.68158186  0.84103061  0.93912806    -0.17900
C1070       C  0.65846761  0.86193048  0.94052008    -0.20100
C1071       C  0.62943068  0.85301999  0.94772644     0.20500
C1072       C  0.62344204  0.82256061  0.95249363    -0.03000
C1073       C  0.64683385  0.80133513  0.95085417    -0.06100
C1074       C  0.67616693  0.81071472  0.94473311     0.20800
C1075       C  0.64113137  0.77100156  0.95682484     0.19000
C1076       C  0.61194564  0.76202007  0.96332275    -0.17600
C1077       C  0.58882028  0.78297429  0.96478514    -0.19800
C1078       C  0.59433812  0.81343261  0.95989916     0.20500
C1079       C  0.57151815  0.83492970  0.96305022    -0.32800
C1080       C  0.57742926  0.86562307  0.95920394     0.01200
C1081       C  0.60654656  0.87417200  0.95098554    -0.24100
C1082       C  0.69979025  0.79002995  0.94622684    -0.28700
C1083       C  0.69455144  0.76006957  0.95391991     0.06800
C1084       C  0.66495014  0.75058018  0.95810321    -0.27400
H1085       H  0.70387401  0.84871675  0.93434395     0.11600
H1086       H  0.66346747  0.88523425  0.93660555     0.12700
H1087       H  0.60710188  0.73882155  0.96798932     0.11800
H1088       H  0.56668628  0.77539477  0.97038018     0.11000
H1089       H  0.54937889  0.82779948  0.96919504     0.16400
H1090       H  0.61166530  0.89751878  0.94746727     0.12300
H1091       H  0.72249256  0.79772906  0.94391694     0.15200
H1092       H  0.66080536  0.72776662  0.96496618     0.14900
C1093       C  0.29521375  0.12393624  0.00530869    -0.17900
C1094       C  0.31530649  0.10006611  0.00744398    -0.20100
C1095       C  0.33916770  0.09768960  0.98747551     0.20500
C1096       C  0.34177436  0.11871010  0.96416460    -0.03000
C1097       C  0.32104416  0.14229914  0.96153420    -0.06100
C1098       C  0.29829987  0.14562692  0.98286593     0.20800
C1099       C  0.32409907  0.16345665  0.93845142     0.19000
C1100       C  0.34693093  0.16026328  0.91752631    -0.17600
C1101       C  0.36766660  0.13724102  0.92040247    -0.19800
C1102       C  0.36572644  0.11682708  0.94404911     0.20500
C1103       C  0.38758818  0.09488255  0.94813411    -0.32800
C1104       C  0.38554807  0.07413837  0.97150475     0.01200
C1105       C  0.36081491  0.07514052  0.99067265    -0.24100
C1106       C  0.28060666  0.17162611  0.98257816    -0.28700
C1107       C  0.28555173  0.19408841  0.96114313     0.06800
C1108       C  0.30575762  0.18865117  0.93792996    -0.27400
H1109       H  0.27773960  0.12586276  0.02171326     0.11600
H1110       H  0.31272545  0.08398676  0.02531301     0.12700
H1111       H  0.34944701  0.17626146  0.89957203     0.11800
H1112       H  0.38557094  0.13574588  0.90444066     0.11000
H1113       H  0.40597586  0.09353965  0.93275564     0.16400
H1114       H  0.35886421  0.05884607  0.00845409     0.12300
H1115       H  0.26498941  0.17554421  0.00046219     0.15200
H1116       H  0.30923595  0.20560401  0.92101594     0.14900
C1117       C  0.44952318  0.17638177  0.86070340    -0.17900
C1118       C  0.44792551  0.15078191  0.87836737    -0.20100
C1119       C  0.45838186  0.12342687  0.86753780     0.20500
C1120       C  0.46972056  0.12150356  0.83839845    -0.03000
C1121       C  0.47199864  0.14747249  0.82087642    -0.06100
C1122       C  0.46214091  0.17506777  0.83222352     0.20800
C1123       C  0.48544496  0.14605208  0.79264423     0.19000
C1124       C  0.49481897  0.11845197  0.78137135    -0.17600
C1125       C  0.49196941  0.09254573  0.79850628    -0.19800
C1126       C  0.48015758  0.09394779  0.82733845     0.20500
C1127       C  0.48000232  0.06867987  0.84585340    -0.32800
C1128       C  0.47055115  0.07106728  0.87550343     0.01200
C1129       C  0.45901930  0.09828467  0.88586788    -0.24100
C1130       C  0.46633986  0.20110151  0.81554875    -0.28700
C1131       C  0.48183805  0.20028076  0.78842890     0.06800
C1132       C  0.49068951  0.17242266  0.77684792    -0.27400
H1133       H  0.44187236  0.19739399  0.86972828     0.11600
H1134       H  0.43915477  0.15251564  0.90075374     0.12700
H1135       H  0.50496752  0.11700494  0.75956264     0.11800
H1136       H  0.49995017  0.07160496  0.78961385     0.11000
H1137       H  0.48893104  0.04775380  0.83784013     0.16400
H1138       H  0.45155407  0.10022455  0.90870330     0.12300
H1139       H  0.45853400  0.22213672  0.82434934     0.15200
H1140       H  0.50320524  0.17114650  0.75633881     0.14900
C1141       C  0.40709955  0.77610895  0.85222054    -0.17900
C1142       C  0.41532192  0.79663073  0.87425696    -0.20100
C1143       C  0.42278349  0.82601248  0.86638180     0.20500
C1144       C  0.41866932  0.83566541  0.83666547    -0.03000
C1145       C  0.41015491  0.81511636  0.81464125    -0.06100
C1146       C  0.40637390  0.78483554  0.82214648     0.20800
C1147       C  0.40868472  0.82405408  0.78448840     0.19000
C1148       C  0.41230604  0.85418648  0.77699402    -0.17600
C1149       C  0.42113159  0.87457522  0.79881349    -0.19800
C1150       C  0.42576527  0.86509781  0.82834615     0.20500
C1151       C  0.43898725  0.88401301  0.84920739    -0.32800
C1152       C  0.44529721  0.87398929  0.87835970     0.01200
C1153       C  0.43590310  0.84535046  0.88715716    -0.24100
C1154       C  0.40664359  0.76361481  0.79921411    -0.28700
C1155       C  0.41610239  0.77270476  0.77059597     0.06800
C1156       C  0.40834526  0.80209894  0.76235120    -0.27400
H1157       H  0.40372462  0.75300317  0.85841563     0.11600
H1158       H  0.41765450  0.78904722  0.89711388     0.12700
H1159       H  0.41087964  0.86146908  0.75396953     0.11800
H1160       H  0.42583472  0.89735962  0.79230106     0.11000
H1161       H  0.44507679  0.90636719  0.84235578     0.16400
H1162       H  0.43958408  0.83776093  0.90985042     0.12300
H1163       H  0.40628627  0.74021773  0.80510946     0.15200
H1164       H  0.40913496  0.80904661  0.73925351     0.14900
C1165       C  0.50241551  0.86866716  0.18316746    -0.17900
C1166       C  0.50684619  0.88202327  0.15550672    -0.20100
C1167       C  0.49045009  0.87257850  0.13061774     0.20500
C1168       C  0.46871109  0.85018567  0.13356079    -0.03000
C1169       C  0.46452146  0.83640040  0.16145044    -0.06100
C1170       C  0.48180630  0.84547092  0.18615219     0.20800
C1171       C  0.44417638  0.81265153  0.16429176     0.19000
C1172       C  0.42673522  0.80435045  0.13958239    -0.17600
C1173       C  0.43029010  0.81867933  0.11199662    -0.19800
C1174       C  0.45173662  0.84113914  0.10854399     0.20500
C1175       C  0.45644776  0.85495124  0.08073151    -0.32800
C1176       C  0.47810679  0.87733034  0.07799609     0.01200
C1177       C  0.49533469  0.88546353  0.10288239    -0.24100
C1178       C  0.47991426  0.82980703  0.21289018    -0.28700
C1179       C  0.46208777  0.80421697  0.21508697     0.06800
C1180       C  0.44316632  0.79650726  0.19118470    -0.27400
H1181       H  0.51578883  0.87582348  0.20201164     0.11600
H1182       H  0.52333771  0.89950541  0.15349732     0.12700
H1183       H  0.41078607  0.78636530  0.14142691     0.11800
H1184       H  0.41676825  0.81170692  0.09320022     0.11000
H1185       H  0.44265351  0.84919952  0.06169841     0.16400
H1186       H  0.51196449  0.90286152  0.10084214     0.12300
H1187       H  0.49491724  0.83569379  0.23093959     0.15200
H1188       H  0.42933245  0.77680103  0.19284069     0.14900
C1189       C  0.52253640  0.17017548  0.10314303    -0.17900
C1190       C  0.52011733  0.14850301  0.08089294    -0.20100
C1191       C  0.50677135  0.12091651  0.08703310     0.20500
C1192       C  0.49576189  0.11508312  0.11588595    -0.03000
C1193       C  0.49804673  0.13701655  0.13827984    -0.06100
C1194       C  0.51148866  0.16468198  0.13184664     0.20800
C1195       C  0.48674972  0.13130387  0.16702765     0.19000
C1196       C  0.47343902  0.10370076  0.17318955    -0.17600
C1197       C  0.47133429  0.08189109  0.15105077    -0.19800
C1198       C  0.48246158  0.08735283  0.12237751     0.20500
C1199       C  0.48063753  0.06552889  0.10013231    -0.32800
C1200       C  0.49164011  0.07114554  0.07135381     0.01200
C1201       C  0.50441053  0.09900752  0.06489249    -0.24100
C1202       C  0.51334994  0.18649601  0.15410866    -0.28700
C1203       C  0.50149205  0.18128300  0.18264693     0.06800
C1204       C  0.48851487  0.15344500  0.18897158    -0.27400
H1205       H  0.53290388  0.19131745  0.09784661     0.11600
H1206       H  0.52873136  0.15330601  0.05887876     0.12700
H1207       H  0.46461766  0.09898681  0.19513889     0.11800
H1208       H  0.46098912  0.06073960  0.15635735     0.11000
H1209       H  0.47043995  0.04421772  0.10516092     0.16400
H1210       H  0.51302522  0.10343306  0.04278299     0.12300
H1211       H  0.52392005  0.20762546  0.14914866     0.15200
H1212       H  0.47896886  0.14928141  0.21072580     0.14900
C1213       C  0.36491016  0.91801868  0.13896908    -0.17900
C1214       C  0.34296682  0.91681497  0.16094194    -0.20100
C1215       C  0.32202789  0.93985808  0.16350859     0.20500
C1216       C  0.32210612  0.96352067  0.14275276    -0.03000
C1217       C  0.34407930  0.96460406  0.12043220    -0.06100
C1218       C  0.36611867  0.94218789  0.11907459     0.20800
C1219       C  0.34461798  0.98869976  0.10017587     0.19000
C1220       C  0.32287220  0.01102111  0.10187546    -0.17600
C1221       C  0.30152941  0.01029741  0.12441597    -0.19800
C1222       C  0.30133527  0.98700605  0.14536173     0.20500
C1223       C  0.28227272  0.98787103  0.17007444    -0.32800
C1224       C  0.28383151  0.96553084  0.19199401     0.01200
C1225       C  0.30255116  0.94083878  0.18776336    -0.24100
C1226       C  0.38910623  0.94461627  0.09810090    -0.28700
C1227       C  0.38968899  0.96874484  0.07808380     0.06800
C1228       C  0.36717537  0.99034449  0.07888536    -0.27400
H1229       H  0.38132986  0.90038772  0.13796922     0.11600
H1230       H  0.34303483  0.89839116  0.17661522     0.12700
H1231       H  0.32290098  0.02951855  0.08628492     0.11800
H1232       H  0.28566257  0.02837931  0.12593620     0.11000
H1233       H  0.26818777  0.00712990  0.17362943     0.16400
H1234       H  0.30398250  0.92387255  0.20498857     0.12300
H1235       H  0.40612338  0.92754729  0.09689379     0.15200
H1236       H  0.36753470  0.00870513  0.06310075     0.14900
C1237       C  0.65894720  0.94452483  0.86514298    -0.17900
C1238       C  0.68209578  0.94525900  0.84436076    -0.20100
C1239       C  0.67605918  0.94947345  0.81387644     0.20500
C1240       C  0.64617131  0.95146416  0.80418819    -0.03000
C1241       C  0.62272890  0.95104088  0.82529008    -0.06100
C1242       C  0.62927182  0.94821991  0.85592047     0.20800
C1243       C  0.59293559  0.95485123  0.81586225     0.19000
C1244       C  0.58683745  0.95755724  0.78519484    -0.17600
C1245       C  0.60999340  0.95802614  0.76433833    -0.19800
C1246       C  0.63978550  0.95576866  0.77365696     0.20500
C1247       C  0.66326070  0.95998562  0.75336858    -0.32800
C1248       C  0.69309477  0.96051752  0.76320896     0.01200
C1249       C  0.69931774  0.95394869  0.79332165    -0.24100
C1250       C  0.60626027  0.95028122  0.87692949    -0.28700
C1251       C  0.57647173  0.95560096  0.86808961     0.06800
C1252       C  0.56999233  0.95700875  0.83725601    -0.27400
H1253       H  0.66436170  0.94202911  0.88859881     0.11600
H1254       H  0.70481406  0.94347431  0.85227564     0.12700
H1255       H  0.56417479  0.96020734  0.77736892     0.11800
H1256       H  0.60462197  0.96117866  0.74095467     0.11000
H1257       H  0.65825239  0.96571806  0.73037324     0.16400
H1258       H  0.72209439  0.95502311  0.80123730     0.12300
H1259       H  0.61185999  0.94850821  0.90041053     0.15200
H1260       H  0.54731209  0.96070357  0.82991078     0.14900
C1261       C  0.34835366  0.91373173  0.82230217    -0.17900
C1262       C  0.32332759  0.90816773  0.80449031    -0.20100
C1263       C  0.29784594  0.92606000  0.80686795     0.20500
C1264       C  0.29723709  0.94916665  0.82809633    -0.03000
C1265       C  0.32229093  0.95425673  0.84671074    -0.06100
C1266       C  0.34823622  0.93692753  0.84323386     0.20800
C1267       C  0.32166636  0.97718465  0.86817697     0.19000
C1268       C  0.29598873  0.99479743  0.87078033    -0.17600
C1269       C  0.27175009  0.99066378  0.85137836    -0.19800
C1270       C  0.27228913  0.96820103  0.82959353     0.20500
C1271       C  0.24965827  0.96601887  0.80771167    -0.32800
C1272       C  0.25137176  0.94447384  0.78494426     0.01200
C1273       C  0.27413040  0.92288285  0.78661458    -0.24100
C1274       C  0.37360265  0.94311827  0.86064754    -0.28700
C1275       C  0.37310984  0.96566613  0.88238057     0.06800
C1276       C  0.34682863  0.98228566  0.88633846    -0.27400
H1277       H  0.36789414  0.90000218  0.81954720     0.11600
H1278       H  0.32429802  0.89048291  0.78810678     0.12700
H1279       H  0.29500828  0.01242305  0.88722354     0.11800
H1280       H  0.25278744  0.00542080  0.85306245     0.11000
H1281       H  0.23267599  0.98310701  0.80636592     0.16400
H1282       H  0.27602705  0.90669542  0.76878261     0.12300
H1283       H  0.39345412  0.92975550  0.85798202     0.15200
H1284       H  0.34616536  0.99949053  0.90326423     0.14900
C1285       C  0.56046870  0.13688762  0.34944269    -0.17900
C1286       C  0.56122079  0.15820811  0.32666640    -0.20100
C1287       C  0.53663043  0.17671956  0.32126643     0.20500
C1288       C  0.51161933  0.17487552  0.33999944    -0.03000
C1289       C  0.51096958  0.15348231  0.36323291    -0.06100
C1290       C  0.53520355  0.13386017  0.36735139     0.20800
C1291       C  0.48573909  0.15104967  0.38164872     0.19000
C1292       C  0.46168205  0.17052879  0.37703105    -0.17600
C1293       C  0.46206170  0.19128439  0.35356193    -0.19800
C1294       C  0.48667739  0.19325651  0.33451624     0.20500
C1295       C  0.48604956  0.21165879  0.30894987    -0.32800
C1296       C  0.51000415  0.21162316  0.28889992     0.01200
C1297       C  0.53580812  0.19541303  0.29617464    -0.24100
C1298       C  0.53363114  0.11128142  0.38899211    -0.28700
C1299       C  0.50854266  0.10850042  0.40718322     0.06800
C1300       C  0.48492013  0.12887114  0.40394986    -0.27400
H1301       H  0.57942338  0.12231595  0.35263239     0.11600
H1302       H  0.58066233  0.15949604  0.31258376     0.12700
H1303       H  0.44220816  0.16915955  0.39106426     0.11800
H1304       H  0.44278118  0.20529880  0.34986570     0.11000
H1305       H  0.46601020  0.22386916  0.30327604     0.16400
H1306       H  0.55422662  0.19526266  0.28067953     0.12300
H1307       H  0.55218178  0.09615287  0.39212973     0.15200
H1308       H  0.46578219  0.12706942  0.41842682     0.14900
C1309       C  0.53579162  0.89634321  0.33891987    -0.17900
C1310       C  0.53417554  0.87398200  0.31736644    -0.20100
C1311       C  0.52638420  0.84478041  0.32537056     0.20500
C1312       C  0.52088772  0.83773553  0.35547155    -0.03000
C1313       C  0.52310564  0.86031438  0.37742594    -0.06100
C1314       C  0.53006156  0.88982734  0.36893599     0.20800
C1315       C  0.51746926  0.85361048  0.40761031     0.19000
C1316       C  0.51008160  0.82416808  0.41555082    -0.17600
C1317       C  0.50715155  0.80193516  0.39366085    -0.19800
C1318       C  0.51204304  0.80852575  0.36340010     0.20500
C1319       C  0.50673205  0.78712905  0.34075523    -0.32800
C1320       C  0.51082701  0.79473071  0.31051522     0.01200
C1321       C  0.52233752  0.82304427  0.30343415    -0.24100
C1322       C  0.53050698  0.91255295  0.39036637    -0.28700
C1323       C  0.52435043  0.90644752  0.42048533     0.06800
C1324       C  0.51848450  0.87663863  0.42904233    -0.27400
H1325       H  0.54117399  0.91886146  0.33203063     0.11600
H1326       H  0.53822748  0.87972887  0.29425416     0.12700
H1327       H  0.50579642  0.81848802  0.43863258     0.11800
H1328       H  0.50054812  0.77969682  0.40036452     0.11000
H1329       H  0.49769911  0.76547112  0.34643852     0.16400
H1330       H  0.52565185  0.82899755  0.28022124     0.12300
H1331       H  0.53536568  0.93518826  0.38342731     0.15200
H1332       H  0.51369615  0.87150164  0.45215620     0.14900
C1333       C  0.47624031  0.21996586  0.63331334    -0.17900
C1334       C  0.47420937  0.19502685  0.61460988    -0.20100
C1335       C  0.49530252  0.17200181  0.61655906     0.20500
C1336       C  0.51944769  0.17485854  0.63657921    -0.03000
C1337       C  0.52196376  0.20047242  0.65482637    -0.06100
C1338       C  0.49967650  0.22260766  0.65396821     0.20800
C1339       C  0.54570902  0.20293048  0.67534857     0.19000
C1340       C  0.56738113  0.18042256  0.67654371    -0.17600
C1341       C  0.56472846  0.15495103  0.65874056    -0.19800
C1342       C  0.54051461  0.15163921  0.63918792     0.20500
C1343       C  0.53692263  0.12545013  0.62239131    -0.32800
C1344       C  0.51307962  0.12249476  0.60229131     0.01200
C1345       C  0.49256974  0.14604956  0.59914404    -0.24100
C1346       C  0.49964756  0.24526204  0.67569462    -0.28700
C1347       C  0.52130762  0.24565057  0.69850356     0.06800
C1348       C  0.54575959  0.22618219  0.69633519    -0.27400
H1349       H  0.45897167  0.23676486  0.63223737     0.11600
H1350       H  0.45561958  0.19332859  0.59924779     0.12700
H1351       H  0.58577614  0.18193641  0.69215347     0.11800
H1352       H  0.58130585  0.13752719  0.66073841     0.11000
H1353       H  0.55320041  0.10771293  0.62421625     0.16400
H1354       H  0.47439440  0.14400991  0.58329556     0.12300
H1355       H  0.48054001  0.25985563  0.67744386     0.15200
H1356       H  0.56223231  0.22601492  0.71408941     0.14900
C1357       C  0.53690577  0.81242368  0.64283195    -0.17900
C1358       C  0.54007347  0.83597945  0.62249842    -0.20100
C1359       C  0.53274829  0.86529912  0.63067726     0.20500
C1360       C  0.52341960  0.87114800  0.66001538    -0.03000
C1361       C  0.52048436  0.84738133  0.68065566    -0.06100
C1362       C  0.52650299  0.81774486  0.67179398     0.20800
C1363       C  0.51005609  0.85312594  0.70966488     0.19000
C1364       C  0.50373976  0.88253970  0.71816889    -0.17600
C1365       C  0.50655698  0.90600773  0.69772332    -0.19800
C1366       C  0.51588138  0.90054676  0.66841034     0.20500
C1367       C  0.51688691  0.92376945  0.64716018    -0.32800
C1368       C  0.52517790  0.91798983  0.61748584     0.01200
C1369       C  0.53368096  0.88865753  0.60975203    -0.24100
C1370       C  0.52026321  0.79393554  0.69139732    -0.28700
C1371       C  0.50809212  0.79957582  0.71961832     0.06800
C1372       C  0.50429640  0.82923218  0.72902144    -0.27400
H1373       H  0.54184362  0.78993259  0.63563474     0.11600
H1374       H  0.54751235  0.83113391  0.60008233     0.12700
H1375       H  0.49575094  0.88729847  0.74041164     0.11800
H1376       H  0.50079833  0.92837495  0.70467243     0.11000
H1377       H  0.51023887  0.94608540  0.65348220     0.16400
H1378       H  0.54044535  0.88374833  0.58712162     0.12300
H1379       H  0.52283697  0.77110316  0.68398173     0.15200
H1380       H  0.49461693  0.83353509  0.75069803     0.14900
C1381       C  0.38653899  0.95714905  0.31618696    -0.17900
C1382       C  0.40755504  0.95902415  0.33922805    -0.20100
C1383       C  0.40232595  0.97721704  0.36409306     0.20500
C1384       C  0.37565924  0.99367757  0.36574687    -0.03000
C1385       C  0.35471337  0.99219760  0.34225883    -0.06100
C1386       C  0.36011308  0.97369620  0.31746998     0.20800
C1387       C  0.32827021  0.00903031  0.34373214     0.19000
C1388       C  0.32302656  0.02718629  0.36858515    -0.17600
C1389       C  0.34358787  0.02834360  0.39203915    -0.19800
C1390       C  0.36989827  0.01164745  0.39086635     0.20500
C1391       C  0.39071093  0.01295284  0.41419590    -0.32800
C1392       C  0.41767847  0.99738938  0.41229038     0.01200
C1393       C  0.42334734  0.97947495  0.38722477    -0.24100
C1394       C  0.33875648  0.97164175  0.29468791    -0.28700
C1395       C  0.31208663  0.98793295  0.29626357     0.06800
C1396       C  0.30726768  0.00697639  0.32062739    -0.27400
H1397       H  0.39097413  0.94278144  0.29733267     0.11600
H1398       H  0.42786085  0.94616780  0.33764428     0.12700
H1399       H  0.30285820  0.04027199  0.37003064     0.11800
H1400       H  0.33894473  0.04238255  0.41108399     0.11000
H1401       H  0.38642504  0.02695631  0.43337671     0.16400
H1402       H  0.44408995  0.96727509  0.38580237     0.12300
H1403       H  0.34245613  0.95655409  0.27622611     0.15200
H1404       H  0.28690051  0.01980576  0.32182856     0.14900
C1405       C  0.61453567  0.07079948  0.68864197    -0.17900
C1406       C  0.63633167  0.07302858  0.71089376    -0.20100
C1407       C  0.66650847  0.07226293  0.70323447     0.20500
C1408       C  0.67469078  0.07340176  0.67295308    -0.03000
C1409       C  0.65286924  0.07070379  0.65059893    -0.06100
C1410       C  0.62280525  0.06763877  0.65866296     0.20800
C1411       C  0.66150305  0.06777024  0.62054938     0.19000
C1412       C  0.69143592  0.07151033  0.61278911    -0.17600
C1413       C  0.71307732  0.07473388  0.63502879    -0.19800
C1414       C  0.70495424  0.07362640  0.66517723     0.20500
C1415       C  0.72625537  0.06799971  0.68731194    -0.32800
C1416       C  0.71684903  0.05666584  0.71513241     0.01200
C1417       C  0.68835457  0.06571359  0.72469320    -0.24100
C1418       C  0.60204459  0.05884667  0.63710327    -0.28700
C1419       C  0.61118022  0.05229710  0.60784349     0.06800
C1420       C  0.64053582  0.05869523  0.59928945    -0.27400
H1421       H  0.59141575  0.06926676  0.69507195     0.11600
H1422       H  0.62963813  0.07278614  0.73406920     0.12700
H1423       H  0.69832175  0.06999861  0.58972195     0.11800
H1424       H  0.73626998  0.07530739  0.62871040     0.11000
H1425       H  0.74924900  0.06673889  0.68070039     0.16400
H1426       H  0.68155682  0.06242045  0.74756094     0.12300
H1427       H  0.57917095  0.05529835  0.64365436     0.15200
H1428       H  0.64754215  0.05499889  0.57650165     0.14900
C1429       C  0.31068033  0.02174436  0.62409035    -0.17900
C1430       C  0.33625392  0.02984903  0.60864547    -0.20100
C1431       C  0.36419071  0.01989280  0.61840907     0.20500
C1432       C  0.36666520  0.00220129  0.64431307    -0.03000
C1433       C  0.34085910  0.99367825  0.65960990    -0.06100
C1434       C  0.31272295  0.00339465  0.64934910     0.20800
C1435       C  0.34315378  0.97482165  0.68466752     0.19000
C1436       C  0.37118162  0.96537545  0.69480869    -0.17600
C1437       C  0.39685914  0.97404127  0.67974450    -0.19800
C1438       C  0.39478835  0.99200358  0.65418490     0.20500
C1439       C  0.42004845  0.99845378  0.63726969    -0.32800
C1440       C  0.41712079  0.01408088  0.61030355     0.01200
C1441       C  0.38948913  0.02584859  0.60170658    -0.24100
C1442       C  0.28710921  0.99455807  0.66447595    -0.28700
C1443       C  0.28925638  0.97583474  0.68946980     0.06800
C1444       C  0.31734270  0.96560061  0.69905759    -0.27400
H1445       H  0.28927030  0.02939422  0.61598403     0.11600
H1446       H  0.33412523  0.04333540  0.58868107     0.12700
H1447       H  0.37321023  0.95103976  0.71420445     0.11800
H1448       H  0.41824191  0.96606705  0.68761461     0.11000
H1449       H  0.44144264  0.98933415  0.64378222     0.16400
H1450       H  0.38742644  0.03819039  0.58099715     0.12300
H1451       H  0.26559761  0.00265645  0.65710567     0.15200
H1452       H  0.31915877  0.95039209  0.71781203     0.14900
C1453       C  0.59757749  0.93921347  0.14629273    -0.17900
C1454       C  0.61928376  0.93920900  0.16872906    -0.20100
C1455       C  0.64774163  0.95062305  0.16313650     0.20500
C1456       C  0.65470849  0.96140965  0.13443979    -0.03000
C1457       C  0.63277075  0.96127329  0.11168009    -0.06100
C1458       C  0.60397949  0.95050871  0.11782079     0.20800
C1459       C  0.63941357  0.97255837  0.08306176     0.19000
C1460       C  0.66809893  0.98353272  0.07744341    -0.17600
C1461       C  0.68976201  0.98390723  0.10007288    -0.19800
C1462       C  0.68324043  0.97320528  0.12876530     0.20500
C1463       C  0.70415919  0.97536795  0.15221022    -0.32800
C1464       C  0.69663849  0.96619795  0.18123247     0.01200
C1465       C  0.66884095  0.95270245  0.18613207    -0.24100
C1466       C  0.58189689  0.95169157  0.09560935    -0.28700
C1467       C  0.58805329  0.96325634  0.06705889     0.06800
C1468       C  0.61710652  0.97319758  0.06082312    -0.27400
H1469       H  0.57562457  0.93074758  0.15134249     0.11600
H1470       H  0.61360438  0.93085118  0.19066739     0.12700
H1471       H  0.67365956  0.99229099  0.05563688     0.11800
H1472       H  0.71149704  0.99303932  0.09524595     0.11000
H1473       H  0.72547563  0.98589069  0.14834199     0.16400
H1474       H  0.66305903  0.94526350  0.20839409     0.12300
H1475       H  0.55976342  0.94363991  0.10062295     0.15200
H1476       H  0.62211555  0.98223338  0.03897724     0.14900
C1477       C  0.69625171  0.97214285  0.36136622    -0.17900
C1478       C  0.67877410  0.97500899  0.38681555    -0.20100
C1479       C  0.65574722  0.99601873  0.38755306     0.20500
C1480       C  0.65062479  0.01478144  0.36265957    -0.03000
C1481       C  0.66833921  0.01200115  0.33708084    -0.06100
C1482       C  0.69097820  0.99032254  0.33638418     0.20800
C1483       C  0.66272834  0.03018372  0.31186064     0.19000
C1484       C  0.64006421  0.05159334  0.31285549    -0.17600
C1485       C  0.62233548  0.05423414  0.33819369    -0.19800
C1486       C  0.62714098  0.03559875  0.36292455     0.20500
C1487       C  0.60826142  0.03666385  0.38751714    -0.32800
C1488       C  0.61293960  0.01757312  0.41190471     0.01200
C1489       C  0.63706485  0.99788951  0.41229446    -0.24100
C1490       C  0.70733448  0.98652408  0.31036018    -0.28700
C1491       C  0.70129123  0.00391847  0.28490256     0.06800
C1492       C  0.67926484  0.02596397  0.28581925    -0.27400
H1493       H  0.71360231  0.95540141  0.36104612     0.11600
H1494       H  0.68290324  0.96043127  0.40569847     0.12700
H1495       H  0.63562634  0.06584060  0.29379683     0.11800
H1496       H  0.60449720  0.07044999  0.33823117     0.11000
H1497       H  0.58953859  0.05188193  0.38751863     0.16400
H1498       H  0.64029426  0.98302473  0.43115779     0.12300
H1499       H  0.72404720  0.96912845  0.30948513     0.15200
H1500       H  0.67471123  0.03933861  0.26614430     0.14900
C1501       C  0.41526015  0.82497468  0.50999437    -0.17900
C1502       C  0.39330871  0.80277241  0.51156824    -0.20100
C1503       C  0.36437724  0.80967655  0.52093989     0.20500
C1504       C  0.35769629  0.83936435  0.52895240    -0.03000
C1505       C  0.37975400  0.86185742  0.52698766    -0.06100
C1506       C  0.40874183  0.85465398  0.51755194     0.20800
C1507       C  0.37263515  0.89161920  0.53410903     0.19000
C1508       C  0.34375148  0.89864481  0.54340785    -0.17600
C1509       C  0.32207189  0.87641848  0.54560708    -0.19800
C1510       C  0.32878105  0.84676493  0.53831807     0.20500
C1511       C  0.30669809  0.82470131  0.53906465    -0.32800
C1512       C  0.31248346  0.79538395  0.52932632     0.01200
C1513       C  0.34173023  0.78781191  0.52122713    -0.24100
C1514       C  0.43052814  0.87726829  0.51560389    -0.28700
C1515       C  0.42352259  0.90715621  0.52247072     0.06800
C1516       C  0.39438829  0.91393164  0.53168428    -0.27400
H1517       H  0.43731798  0.81895147  0.50257752     0.11600
H1518       H  0.39892518  0.78019707  0.50519512     0.12700
H1519       H  0.33787892  0.92139607  0.54889998     0.11800
H1520       H  0.29989308  0.88252007  0.55261193     0.11000
H1521       H  0.28436420  0.83077325  0.54566050     0.16400
H1522       H  0.34640787  0.76546805  0.51341069     0.12300
H1523       H  0.45273291  0.87168858  0.50824737     0.15200
H1524       H  0.38857515  0.93670391  0.53719819     0.14900
C1525       C  0.62540491  0.83800488  0.52833445    -0.17900
C1526       C  0.64571544  0.81445981  0.52718298    -0.20100
C1527       C  0.67590100  0.81996800  0.52187390     0.20500
C1528       C  0.68573279  0.84968007  0.51811415    -0.03000
C1529       C  0.66506511  0.87353004  0.51891979    -0.06100
C1530       C  0.63481416  0.86751155  0.52393628     0.20800
C1531       C  0.67450538  0.90320609  0.51403106     0.19000
C1532       C  0.70479911  0.90865212  0.50879202    -0.17600
C1533       C  0.72528636  0.88503580  0.50799100    -0.19800
C1534       C  0.71595914  0.85544066  0.51241189     0.20500
C1535       C  0.73594434  0.83141488  0.50966200    -0.32800
C1536       C  0.72603659  0.80167402  0.51202122     0.01200
C1537       C  0.69607079  0.79620699  0.51871371    -0.24100
C1538       C  0.61423423  0.89091336  0.52396355    -0.28700
C1539       C  0.62295931  0.92067728  0.51866688     0.06800
C1540       C  0.65341004  0.92667060  0.51396527    -0.27400
H1541       H  0.60217628  0.83306783  0.53220664     0.11600
H1542       H  0.63771424  0.79186421  0.53004236     0.12700
H1543       H  0.71262574  0.93116507  0.50495636     0.11800
H1544       H  0.74839907  0.88989078  0.50341395     0.11000
H1545       H  0.75876454  0.83569986  0.50331947     0.16400
H1546       H  0.68809968  0.77341037  0.51942489     0.12300
H1547       H  0.59107437  0.88565411  0.52783714     0.15200
H1548       H  0.66059944  0.94934384  0.50977466     0.14900
C1549       C  0.65697234  0.15917336  0.56518745    -0.17900
C1550       C  0.67605455  0.18377034  0.56728487    -0.20100
C1551       C  0.68020277  0.20286287  0.54277647     0.20500
C1552       C  0.66429361  0.19750288  0.51610173    -0.03000
C1553       C  0.64468011  0.17280229  0.51408309    -0.06100
C1554       C  0.64136708  0.15332128  0.53863639     0.20800
C1555       C  0.62898910  0.16718050  0.48729756     0.19000
C1556       C  0.63327823  0.18620350  0.46274510    -0.17600
C1557       C  0.65329188  0.21014092  0.46450058    -0.19800
C1558       C  0.66908373  0.21590915  0.49100773     0.20500
C1559       C  0.69121200  0.23818164  0.49215514    -0.32800
C1560       C  0.70886031  0.24212774  0.51797065     0.01200
C1561       C  0.70174476  0.22563159  0.54374718    -0.24100
C1562       C  0.62266406  0.12826957  0.53618354    -0.28700
C1563       C  0.60650690  0.12282196  0.50981295     0.06800
C1564       C  0.60956886  0.14251568  0.48550940    -0.27400
H1565       H  0.65465706  0.14451715  0.58428528     0.11600
H1566       H  0.68822394  0.18738339  0.58787940     0.12700
H1567       H  0.62156224  0.18223114  0.44195347     0.11800
H1568       H  0.65676896  0.22388389  0.44492366     0.11000
H1569       H  0.69713301  0.24998334  0.47190754     0.16400
H1570       H  0.71582689  0.22772029  0.56334126     0.12300
H1571       H  0.62017230  0.11326352  0.55501060     0.15200
H1572       H  0.59716847  0.13835402  0.46513753     0.14900
C1573       C  0.31654861  0.13657919  0.56155244    -0.17900
C1574       C  0.33951656  0.11583875  0.55844945    -0.20100
C1575       C  0.36283830  0.12119138  0.53849901     0.20500
C1576       C  0.36347229  0.14816104  0.52219090    -0.03000
C1577       C  0.33997774  0.16887195  0.52490370    -0.06100
C1578       C  0.31631694  0.16284249  0.54446571     0.20800
C1579       C  0.33947890  0.19488458  0.50703665     0.19000
C1580       C  0.36342984  0.20074129  0.48797637    -0.17600
C1581       C  0.38717837  0.18066593  0.48598169    -0.19800
C1582       C  0.38712864  0.15405783  0.50253717     0.20500
C1583       C  0.41004294  0.13304432  0.49942207    -0.32800
C1584       C  0.40907366  0.10572310  0.51486263     0.01200
C1585       C  0.38536660  0.09996221  0.53434917    -0.24100
C1586       C  0.29183356  0.18207083  0.54506077    -0.28700
C1587       C  0.28968998  0.20622828  0.52503152     0.06800
C1588       C  0.31418677  0.21340875  0.50709701    -0.27400
H1589       H  0.29847626  0.13163302  0.57664530     0.11600
H1590       H  0.33884976  0.09544977  0.57139744     0.12700
H1591       H  0.36354665  0.22059995  0.47418357     0.11800
H1592       H  0.40523605  0.18559018  0.47087149     0.11000
H1593       H  0.42833815  0.13764047  0.48447038     0.16400
H1594       H  0.38477271  0.07919298  0.54668667     0.12300
H1595       H  0.27287682  0.17643086  0.55880617     0.15200
H1596       H  0.31250173  0.23174814  0.49138818     0.14900
C1597       C  0.77782165  0.96371068  0.60297253    -0.17900
C1598       C  0.79839112  0.96334743  0.57952659    -0.20100
C1599       C  0.82908118  0.96442643  0.58537066     0.20500
C1600       C  0.83897681  0.96540196  0.61533723    -0.03000
C1601       C  0.81818294  0.96566419  0.63906832    -0.06100
C1602       C  0.78744132  0.96506791  0.63283874     0.20800
C1603       C  0.82816956  0.96748461  0.66896306     0.19000
C1604       C  0.85882129  0.96836157  0.67485803    -0.17600
C1605       C  0.87932760  0.96787010  0.65146394    -0.19800
C1606       C  0.86963982  0.96665099  0.62163839     0.20500
C1607       C  0.89015509  0.96694784  0.59810134    -0.32800
C1608       C  0.88077167  0.96610540  0.56793177     0.01200
C1609       C  0.84997695  0.96480396  0.56187016    -0.24100
C1610       C  0.76692845  0.96715953  0.65646053    -0.28700
C1611       C  0.77667650  0.97001340  0.68629109     0.06800
C1612       C  0.80739427  0.96972677  0.69231030    -0.27400
H1613       H  0.75430844  0.96329983  0.59769712     0.11600
H1614       H  0.79024300  0.96252099  0.55675757     0.12700
H1615       H  0.86696446  0.96979005  0.69759783     0.11800
H1616       H  0.90283548  0.96879246  0.65671671     0.11000
H1617       H  0.91363288  0.96802231  0.60347914     0.16400
H1618       H  0.84224693  0.96412485  0.53894702     0.12300
H1619       H  0.74335905  0.96852804  0.65152826     0.15200
H1620       H  0.81509446  0.97303132  0.71502033     0.14900
C1621       C  0.08975281  0.98314442  0.65286168    -0.17900
C1622       C  0.11097509  0.98101062  0.67583212    -0.20100
C1623       C  0.13556860  0.96193628  0.67314448     0.20500
C1624       C  0.13837773  0.94444224  0.64712316    -0.03000
C1625       C  0.11722926  0.94703341  0.62364399    -0.06100
C1626       C  0.09285263  0.96656488  0.62649743     0.20800
C1627       C  0.12095484  0.93069857  0.59701278     0.19000
C1628       C  0.14510841  0.91106329  0.59458448    -0.17600
C1629       C  0.16584362  0.90830731  0.61786608    -0.19800
C1630       C  0.16295775  0.92524272  0.64400950     0.20500
C1631       C  0.18507370  0.92452087  0.66629429    -0.32800
C1632       C  0.18352601  0.94325860  0.69146931     0.01200
C1633       C  0.15814881  0.96120946  0.69519736    -0.24100
C1634       C  0.07238351  0.96962074  0.60274270    -0.28700
C1635       C  0.07646711  0.95419555  0.57568376     0.06800
C1636       C  0.10079989  0.93464456  0.57312671    -0.27400
H1637       H  0.07119213  0.99827004  0.65548243     0.11600
H1638       H  0.10836581  0.99465324  0.69555094     0.12700
H1639       H  0.14823712  0.89814629  0.57445443     0.11800
H1640       H  0.18458290  0.89342965  0.61510438     0.11000
H1641       H  0.20472590  0.91095492  0.66303895     0.16400
H1642       H  0.15704284  0.97617394  0.71410662     0.12300
H1643       H  0.05368914  0.98467158  0.60498008     0.15200
H1644       H  0.10387156  0.92229275  0.55261529     0.14900
C1645       C  0.17967816  0.91952108  0.33910119    -0.17900
C1646       C  0.15617300  0.91997555  0.35933680    -0.20100
C1647       C  0.13296901  0.94060655  0.35599731     0.20500
C1648       C  0.13277880  0.96011056  0.33121130    -0.03000
C1649       C  0.15657691  0.95969735  0.31075667    -0.06100
C1650       C  0.18037343  0.93969504  0.31515807     0.20800
C1651       C  0.15724229  0.98020291  0.28676993     0.19000
C1652       C  0.13335900  0.99996670  0.28273738    -0.17600
C1653       C  0.10959183  0.00013676  0.30281732    -0.19800
C1654       C  0.10933186  0.98065929  0.32740665     0.20500
C1655       C  0.08639398  0.98173443  0.34857000    -0.32800
C1656       C  0.08701544  0.96305760  0.37387673     0.01200
C1657       C  0.11028642  0.94243610  0.37729800    -0.24100
C1658       C  0.20527597  0.94140512  0.29667222    -0.28700
C1659       C  0.20712575  0.96324883  0.27422099     0.06800
C1660       C  0.18255650  0.98175908  0.26846370    -0.27400
H1661       H  0.19773694  0.90391811  0.34265755     0.11600
H1662       H  0.15644199  0.90454562  0.37791961     0.12700
H1663       H  0.13338178  0.01578535  0.26443876     0.11800
H1664       H  0.09170977  0.01598160  0.29947460     0.11000
H1665       H  0.06844837  0.99764019  0.34579910     0.16400
H1666       H  0.11060756  0.92768552  0.39646417     0.12300
H1667       H  0.22430571  0.92721042  0.30114189     0.15200
H1668       H  0.18408609  0.99879216  0.25134762     0.14900
C1669       C  0.82756670  0.92346415  0.33760958    -0.17900
C1670       C  0.80883356  0.92123508  0.31271507    -0.20100
C1671       C  0.81198850  0.94090970  0.28851645     0.20500
C1672       C  0.83487619  0.96236383  0.28889440    -0.03000
C1673       C  0.85407023  0.96430647  0.31378739    -0.06100
C1674       C  0.84996261  0.94518678  0.33853246     0.20800
C1675       C  0.87670734  0.98606163  0.31432753     0.19000
C1676       C  0.88007194  0.00550772  0.29003949    -0.17600
C1677       C  0.86037295  0.00425814  0.26584867    -0.19800
C1678       C  0.83742543  0.98308820  0.26525927     0.20500
C1679       C  0.81540971  0.98402365  0.24294730    -0.32800
C1680       C  0.79107885  0.96446391  0.24406404     0.01200
C1681       C  0.79098474  0.94133465  0.26533256    -0.24100
C1682       C  0.86815843  0.94835766  0.36381648    -0.28700
C1683       C  0.89081961  0.96983591  0.36421366     0.06800
C1684       C  0.89527999  0.98830156  0.33934443    -0.27400
H1685       H  0.82424251  0.90851111  0.35632632     0.11600
H1686       H  0.79119668  0.90479985  0.31284524     0.12700
H1687       H  0.89740041  0.02227765  0.29015752     0.11800
H1688       H  0.86265922  0.02031587  0.24792154     0.11000
H1689       H  0.81516928  0.00225857  0.22702757     0.16400
H1690       H  0.77180362  0.92675266  0.26663743     0.12300
H1691       H  0.86526155  0.93367146  0.38283822     0.15200
H1692       H  0.91299828  0.00469206  0.33971519     0.14900
C1693       C  0.18321633  0.84967724  0.44540310    -0.17900
C1694       C  0.15705569  0.86579698  0.44116481    -0.20100
C1695       C  0.13057823  0.85631427  0.45448892     0.20500
C1696       C  0.13004200  0.83009952  0.47177087    -0.03000
C1697       C  0.15644943  0.81392818  0.47615791    -0.06100
C1698       C  0.18324260  0.82399766  0.46322119     0.20800
C1699       C  0.15627822  0.78842832  0.49447129     0.19000
C1700       C  0.12965843  0.77868282  0.50743208    -0.17600
C1701       C  0.10340622  0.79477441  0.50308712    -0.19800
C1702       C  0.10343583  0.82077267  0.48566818     0.20500
C1703       C  0.07777642  0.83837110  0.48293493    -0.32800
C1704       C  0.07884481  0.86514481  0.46679032     0.01200
C1705       C  0.10494566  0.87341112  0.45190595    -0.24100
C1706       C  0.20978552  0.80889933  0.46925900    -0.28700
C1707       C  0.20992623  0.78424051  0.48849898     0.06800
C1708       C  0.18296891  0.77386698  0.50059896    -0.27400
H1709       H  0.20355640  0.85770536  0.43536993     0.11600
H1710       H  0.15767628  0.88610814  0.42810503     0.12700
H1711       H  0.12928894  0.75898865  0.52147316     0.11800
H1712       H  0.08325674  0.78725898  0.51386687     0.11000
H1713       H  0.05768733  0.83222782  0.49468337     0.16400
H1714       H  0.10564105  0.89405973  0.43931947     0.12300
H1715       H  0.23039222  0.81677421  0.45963791     0.15200
H1716       H  0.18285202  0.75529610  0.51611000     0.14900
C1717       C  0.85176839  0.77624500  0.40592048    -0.17900
C1718       C  0.87424218  0.79692664  0.41204944    -0.20100
C1719       C  0.86707054  0.82663748  0.41872587     0.20500
C1720       C  0.83729697  0.83621389  0.41666112    -0.03000
C1721       C  0.81472088  0.81535688  0.41072595    -0.06100
C1722       C  0.82187633  0.78502036  0.40677785     0.20800
C1723       C  0.78469585  0.82421199  0.41159398     0.19000
C1724       C  0.77757942  0.85445412  0.41497310    -0.17600
C1725       C  0.80002537  0.87526967  0.42067513    -0.19800
C1726       C  0.82976582  0.86604082  0.42300722     0.20500
C1727       C  0.85177565  0.88559484  0.43331924    -0.32800
C1728       C  0.88112555  0.87557334  0.43786159     0.01200
C1729       C  0.88881741  0.84642609  0.42915465    -0.24100
C1730       C  0.79904078  0.76378826  0.40807654    -0.28700
C1731       C  0.77135894  0.77260500  0.41980671     0.06800
C1732       C  0.76266822  0.80221730  0.41337316    -0.27400
H1733       H  0.85765583  0.75305083  0.40278378     0.11600
H1734       H  0.89706619  0.78932604  0.41316127     0.12700
H1735       H  0.75460897  0.86165652  0.41539754     0.11800
H1736       H  0.79395406  0.89823046  0.42494142     0.11000
H1737       H  0.84572865  0.90828484  0.43889355     0.16400
H1738       H  0.91154315  0.83873618  0.43142761     0.12300
H1739       H  0.80478988  0.74037633  0.40712186     0.15200
H1740       H  0.73992581  0.80924746  0.41651364     0.14900
C1741       C  0.81933514  0.09331013  0.50316316    -0.17900
C1742       C  0.80280722  0.11892855  0.50923749    -0.20100
C1743       C  0.81256630  0.14692604  0.49924806     0.20500
C1744       C  0.83891580  0.14917575  0.48258870    -0.03000
C1745       C  0.85569531  0.12339576  0.47666587    -0.06100
C1746       C  0.84593896  0.09534854  0.48716666     0.20800
C1747       C  0.88261153  0.12581375  0.46091754     0.19000
C1748       C  0.89211421  0.15373081  0.45052536    -0.17600
C1749       C  0.87528623  0.17924988  0.45611530    -0.19800
C1750       C  0.84883741  0.17724841  0.47236588     0.20500
C1751       C  0.83231111  0.20286558  0.47879269    -0.32800
C1752       C  0.80625928  0.20088694  0.49577619     0.01200
C1753       C  0.79665338  0.17276463  0.50601621    -0.24100
C1754       C  0.86348948  0.07003497  0.48240674    -0.28700
C1755       C  0.89092669  0.07263207  0.46793790     0.06800
C1756       C  0.90003851  0.10042420  0.45667738    -0.27400
H1757       H  0.81156530  0.07197597  0.51139287     0.11600
H1758       H  0.78251356  0.11687917  0.52196712     0.12700
H1759       H  0.91274129  0.15587533  0.43836280     0.11800
H1760       H  0.88317229  0.20061463  0.44808699     0.11000
H1761       H  0.83967231  0.22429510  0.47043609     0.16400
H1762       H  0.77698941  0.17095959  0.51974433     0.12300
H1763       H  0.85658821  0.04866603  0.49135103     0.15200
H1764       H  0.92115050  0.10241687  0.44529733     0.14900
C1765       C  0.16499361  0.07828249  0.46037957    -0.17900
C1766       C  0.18525282  0.10177463  0.46340398    -0.20100
C1767       C  0.17641159  0.12887916  0.47621783     0.20500
C1768       C  0.14692962  0.13243502  0.48596093    -0.03000
C1769       C  0.12645407  0.10902740  0.48247141    -0.06100
C1770       C  0.13551797  0.08167312  0.46984278     0.20800
C1771       C  0.09693596  0.11297233  0.49191996     0.19000
C1772       C  0.08806042  0.13988970  0.50489142    -0.17600
C1773       C  0.10848992  0.16284227  0.50887140    -0.19800
C1774       C  0.13790773  0.15930219  0.49949171     0.20500
C1775       C  0.15850460  0.18209284  0.50384863    -0.32800
C1776       C  0.18790595  0.17900301  0.49397062     0.01200
C1777       C  0.19655325  0.15241262  0.47972368    -0.24100
C1778       C  0.11491639  0.05828899  0.46712343    -0.28700
C1779       C  0.08545848  0.06239743  0.47651439     0.06800
C1780       C  0.07672870  0.08983230  0.48864536    -0.27400
H1781       H  0.17236737  0.05749646  0.45064175     0.11600
H1782       H  0.20789810  0.09866442  0.45595460     0.12700
H1783       H  0.06538931  0.14306038  0.51226085     0.11800
H1784       H  0.10127982  0.18336989  0.51926139     0.11000
H1785       H  0.15166796  0.20194975  0.51567503     0.16400
H1786       H  0.21899586  0.14986675  0.47152020     0.12300
H1787       H  0.12163795  0.03719333  0.45753616     0.15200
H1788       H  0.05412234  0.09308166  0.49623431     0.14900
C1789       C  0.94073695  0.58082144  0.14056573    -0.17900
C1790       C  0.93816183  0.60256534  0.16268798    -0.20100
C1791       C  0.94698933  0.63204587  0.15710125     0.20500
C1792       C  0.95744701  0.63996428  0.12855648    -0.03000
C1793       C  0.95980464  0.61796119  0.10604354    -0.06100
C1794       C  0.95183030  0.58819136  0.11230237     0.20800
C1795       C  0.97112805  0.62550850  0.07771057     0.19000
C1796       C  0.97929197  0.65522055  0.07199474    -0.17600
C1797       C  0.97720686  0.67695827  0.09437844    -0.19800
C1798       C  0.96677686  0.66950453  0.12293103     0.20500
C1799       C  0.96712601  0.69049623  0.14638946    -0.32800
C1800       C  0.95857434  0.68211981  0.17541289     0.01200
C1801       C  0.94722663  0.65321618  0.18010363    -0.24100
C1802       C  0.95582680  0.56609572  0.09056463    -0.28700
C1803       C  0.96777312  0.57307795  0.06240985     0.06800
C1804       C  0.97481851  0.60308507  0.05597082    -0.27400
H1805       H  0.93466503  0.55805062  0.14581984     0.11600
H1806       H  0.93010319  0.59609823  0.18449337     0.12700
H1807       H  0.98793393  0.66153809  0.05037821     0.11800
H1808       H  0.98440533  0.69949000  0.08953596     0.11000
H1809       H  0.97612714  0.71258519  0.14261532     0.16400
H1810       H  0.94044381  0.64661074  0.20233261     0.12300
H1811       H  0.94984977  0.54326597  0.09576533     0.15200
H1812       H  0.98397411  0.60885626  0.03440720     0.14900
C1813       C  0.93475913  0.80586834  0.34322185    -0.17900
C1814       C  0.92924027  0.78716347  0.31886746    -0.20100
C1815       C  0.94214802  0.79305232  0.29101375     0.20500
C1816       C  0.96008596  0.81855155  0.28744356    -0.03000
C1817       C  0.96522841  0.83779397  0.31198086    -0.06100
C1818       C  0.95297407  0.83104727  0.34014124     0.20800
C1819       C  0.98332224  0.86322183  0.30856540     0.19000
C1820       C  0.99592610  0.86925829  0.28055278    -0.17600
C1821       C  0.99170740  0.84961567  0.25657099    -0.19800
C1822       C  0.97423861  0.82389107  0.25988814     0.20500
C1823       C  0.97279150  0.80215960  0.23718961    -0.32800
C1824       C  0.95697564  0.77545791  0.24162660     0.01200
C1825       C  0.93957294  0.77248807  0.26755683    -0.24100
C1826       C  0.95922122  0.84942041  0.36478796    -0.28700
C1827       C  0.97698704  0.87501779  0.36168987     0.06800
C1828       C  0.98872377  0.88189682  0.33328717    -0.27400
H1829       H  0.92506220  0.80041466  0.36460330     0.11600
H1830       H  0.91564269  0.76750515  0.32209919     0.12700
H1831       H  0.00976716  0.88875600  0.27740479     0.11800
H1832       H  0.00266121  0.85421734  0.23559911     0.11000
H1833       H  0.98674323  0.80438624  0.21768087     0.16400
H1834       H  0.92798644  0.75164626  0.27148732     0.12300
H1835       H  0.94956619  0.84420753  0.38627158     0.15200
H1836       H  0.00230377  0.90165262  0.33048578     0.14900
C1837       C  0.94331817  0.27296379  0.83576493    -0.17900
C1838       C  0.94350381  0.29726084  0.85534096    -0.20100
C1839       C  0.96973054  0.31342994  0.86053812     0.20500
C1840       C  0.99643129  0.30393273  0.84722326    -0.03000
C1841       C  0.99633201  0.27900438  0.82779834    -0.06100
C1842       C  0.96943223  0.26412945  0.82125924     0.20800
C1843       C  0.02269810  0.27032918  0.81332896     0.19000
C1844       C  0.04927508  0.28546364  0.81988942    -0.17600
C1845       C  0.04939439  0.31008332  0.83916281    -0.19800
C1846       C  0.02292405  0.32012461  0.85224172     0.20500
C1847       C  0.02225835  0.34637598  0.86962163    -0.32800
C1848       C  0.99543774  0.35642807  0.88214929     0.01200
C1849       C  0.96952187  0.33934407  0.87816150    -0.24100
C1850       C  0.96857053  0.24262503  0.79842613    -0.28700
C1851       C  0.99410500  0.23618912  0.78163269     0.06800
C1852       C  0.02147946  0.24863849  0.79063379    -0.27400
H1853       H  0.92249036  0.26172349  0.83117935     0.11600
H1854       H  0.92286650  0.30404267  0.86563403     0.12700
H1855       H  0.06980579  0.27898911  0.80919632     0.11800
H1856       H  0.07006352  0.32184477  0.84309344     0.11000
H1857       H  0.04250115  0.35891193  0.87348558     0.16400
H1858       H  0.94902006  0.34658431  0.88847156     0.12300
H1859       H  0.94732313  0.23373313  0.79119308     0.15200
H1860       H  0.04108363  0.24437579  0.77735963     0.14900
C1861       C  0.03347387  0.15038704  0.61701095    -0.17900
C1862       C  0.03118074  0.12977209  0.59373143    -0.20100
C1863       C  0.01028482  0.10660830  0.59501157     0.20500
C1864       C  0.99185354  0.10390390  0.62029193    -0.03000
C1865       C  0.99391939  0.12499361  0.64368518    -0.06100
C1866       C  0.01472067  0.14839728  0.64187796     0.20800
C1867       C  0.97456608  0.12321416  0.66837015     0.19000
C1868       C  0.95401117  0.09969706  0.66978904    -0.17600
C1869       C  0.95239629  0.07843496  0.64693227    -0.19800
C1870       C  0.97102668  0.08046455  0.62196224     0.20500
C1871       C  0.96907237  0.05966514  0.59854621    -0.32800
C1872       C  0.98702648  0.06256646  0.57304935     0.01200
C1873       C  0.00744617  0.08621309  0.57141455    -0.24100
C1874       C  0.01539813  0.17029482  0.66416703    -0.28700
C1875       C  0.99490035  0.16992351  0.68785876     0.06800
C1876       C  0.97515182  0.14574533  0.69034936    -0.27400
H1877       H  0.04952822  0.16829189  0.61526564     0.11600
H1878       H  0.04561736  0.13208960  0.57459739     0.12700
H1879       H  0.93893703  0.09790756  0.68845986     0.11800
H1880       H  0.93623653  0.06061688  0.64858885     0.11000
H1881       H  0.95323069  0.04150926  0.59988580     0.16400
H1882       H  0.02157476  0.08834762  0.55200720     0.12300
H1883       H  0.03047833  0.18902107  0.66195725     0.15200
H1884       H  0.95898118  0.14556023  0.70816912     0.14900
C1885       C  0.97942907  0.60008247  0.76315084    -0.17900
C1886       C  0.98017535  0.57588581  0.78308056    -0.20100
C1887       C  0.98109405  0.58067076  0.81404075     0.20500
C1888       C  0.98004432  0.61025344  0.82484515    -0.03000
C1889       C  0.97876163  0.63462188  0.80479452    -0.06100
C1890       C  0.97924085  0.62955300  0.77377958     0.20800
C1891       C  0.97855438  0.66411662  0.81585593     0.19000
C1892       C  0.97868460  0.66899092  0.84671604    -0.17600
C1893       C  0.98008515  0.64495434  0.86648327    -0.19800
C1894       C  0.98120998  0.61563182  0.85572188     0.20500
C1895       C  0.98382720  0.59172036  0.87550346    -0.32800
C1896       C  0.98491184  0.56195405  0.86534286     0.01200
C1897       C  0.98340081  0.55659530  0.83438214    -0.24100
C1898       C  0.98154931  0.65401908  0.75416573    -0.28700
C1899       C  0.98321508  0.68334962  0.76529140     0.06800
C1900       C  0.98037031  0.68823756  0.79599970    -0.27400
H1901       H  0.97964745  0.59574041  0.73939003     0.11600
H1902       H  0.98070390  0.55343800  0.77424264     0.12700
H1903       H  0.97854413  0.69144065  0.85557331     0.11800
H1904       H  0.98077184  0.64933432  0.89024001     0.11000
H1905       H  0.98495245  0.59661122  0.89914648     0.16400
H1906       H  0.98404424  0.53391045  0.82616473     0.12300
H1907       H  0.98458868  0.65019241  0.73050741     0.15200
H1908       H  0.98252211  0.71071289  0.80460921     0.14900
C1909       C  0.95279762  0.77071844  0.61627831    -0.17900
C1910       C  0.95106188  0.78959923  0.59125714    -0.20100
C1911       C  0.96110833  0.81922616  0.59286457     0.20500
C1912       C  0.97185768  0.83007363  0.62050787    -0.03000
C1913       C  0.97360359  0.81106740  0.64573211    -0.06100
C1914       C  0.96458399  0.78104570  0.64347618     0.20800
C1915       C  0.98581657  0.82176630  0.67277739     0.19000
C1916       C  0.99500254  0.85154331  0.67481409    -0.17600
C1917       C  0.99299758  0.87035323  0.65004127    -0.19800
C1918       C  0.98196739  0.85965073  0.62274895     0.20500
C1919       C  0.98174545  0.87796914  0.59753850    -0.32800
C1920       C  0.97189988  0.86751778  0.56946193     0.01200
C1921       C  0.96129349  0.83799557  0.56735359    -0.24100
C1922       C  0.96929081  0.76155868  0.66781497    -0.28700
C1923       C  0.98333562  0.77174567  0.69406217     0.06800
C1924       C  0.99041680  0.80211316  0.69672232    -0.27400
H1925       H  0.94563808  0.74776728  0.61411216     0.11600
H1926       H  0.94245911  0.78080079  0.57045037     0.12700
H1927       H  0.00442197  0.86010503  0.69537520     0.11800
H1928       H  0.00076647  0.89312945  0.65204004     0.11000
H1929       H  0.99016439  0.90049340  0.59983344     0.16400
H1930       H  0.95335160  0.82968105  0.54608356     0.12300
H1931       H  0.96440756  0.73802106  0.66543050     0.15200
H1932       H  0.00167439  0.80989447  0.71669512     0.14900
C1933       C  0.18302786  0.67705942  0.57248867    -0.17900
C1934       C  0.15790113  0.65906953  0.56815321    -0.20100
C1935       C  0.15656007  0.63893754  0.54423582     0.20500
C1936       C  0.18111811  0.63645240  0.52492554    -0.03000
C1937       C  0.20647087  0.65470117  0.52926862    -0.06100
C1938       C  0.20728174  0.67535641  0.55293986     0.20800
C1939       C  0.23031619  0.65336862  0.50899006     0.19000
C1940       C  0.22901710  0.63314273  0.48516870    -0.17600
C1941       C  0.20422127  0.61468090  0.48120761    -0.19800
C1942       C  0.18005985  0.61628838  0.50080024     0.20500
C1943       C  0.15480333  0.59826843  0.49655232    -0.32800
C1944       C  0.13013601  0.60084245  0.51548745     0.01200
C1945       C  0.13109317  0.62138344  0.53916918    -0.24100
C1946       C  0.23102185  0.69573672  0.55499692    -0.28700
C1947       C  0.25291546  0.69701011  0.53259553     0.06800
C1948       C  0.25372596  0.67406675  0.51124472    -0.27400
H1949       H  0.18313135  0.69292114  0.59067519     0.11600
H1950       H  0.13932640  0.66120999  0.58328141     0.12700
H1951       H  0.24695431  0.63202076  0.46919780     0.11800
H1952       H  0.20373149  0.59947488  0.46247303     0.11000
H1953       H  0.15413039  0.58247583  0.47828796     0.16400
H1954       H  0.11227430  0.62314302  0.55405668     0.12300
H1955       H  0.22978836  0.71369544  0.57110047     0.15200
H1956       H  0.27003536  0.67524318  0.49356909     0.14900
C1957       C  0.90198633  0.34675365  0.55096805    -0.17900
C1958       C  0.88068570  0.32420174  0.55323987    -0.20100
C1959       C  0.85181112  0.32854186  0.54206988     0.20500
C1960       C  0.84398268  0.35627326  0.52945840    -0.03000
C1961       C  0.86548998  0.37939019  0.52763649    -0.06100
C1962       C  0.89473136  0.37426019  0.53788395     0.20800
C1963       C  0.85799818  0.40725384  0.51493746     0.19000
C1964       C  0.82870416  0.41175611  0.50470901    -0.17600
C1965       C  0.80755344  0.38864539  0.50599451    -0.19800
C1966       C  0.81504937  0.36053823  0.51783874     0.20500
C1967       C  0.79483304  0.33623299  0.51691775    -0.32800
C1968       C  0.80328440  0.30782780  0.52774980     0.01200
C1969       C  0.83123437  0.30504541  0.54198176    -0.24100
C1970       C  0.91645337  0.39643859  0.53455549    -0.28700
C1971       C  0.90968596  0.42426198  0.52153521     0.06800
C1972       C  0.88006383  0.42972246  0.51225191    -0.27400
H1973       H  0.92429748  0.34253064  0.55914668     0.11600
H1974       H  0.88706883  0.30301472  0.56299794     0.12700
H1975       H  0.82229066  0.43298342  0.49507464     0.11800
H1976       H  0.78544100  0.39261751  0.49719088     0.11000
H1977       H  0.77340994  0.33893762  0.50611174     0.16400
H1978       H  0.83780248  0.28375424  0.55141761     0.12300
H1979       H  0.93888742  0.39195088  0.54227469     0.15200
H1980       H  0.87441456  0.45099477  0.50221906     0.14900
C1981       C  0.14426392  0.31441743  0.55965786    -0.17900
C1982       C  0.12367472  0.33774943  0.55825430    -0.20100
C1983       C  0.12560645  0.35942417  0.53573890     0.20500
C1984       C  0.14902626  0.35802272  0.51491528    -0.03000
C1985       C  0.16977620  0.33442240  0.51628896    -0.06100
C1986       C  0.16713200  0.31237091  0.53857844     0.20800
C1987       C  0.19249259  0.33231599  0.49473461     0.19000
C1988       C  0.19473758  0.35438031  0.47260605    -0.17600
C1989       C  0.17446526  0.37802865  0.47152840    -0.19800
C1990       C  0.15139182  0.37987162  0.49236595     0.20500
C1991       C  0.13052432  0.40304368  0.49092105    -0.32800
C1992       C  0.10690281  0.40422615  0.51122617     0.01200
C1993       C  0.10447535  0.38235932  0.53353961    -0.24100
C1994       C  0.18647431  0.28788425  0.53850823    -0.28700
C1995       C  0.20816651  0.28482700  0.51624565     0.06800
C1996       C  0.21158602  0.30745403  0.49484281    -0.27400
H1997       H  0.14196948  0.29764257  0.57691927     0.11600
H1998       H  0.10602781  0.33863498  0.57456753     0.12700
H1999       H  0.21196718  0.35314947  0.45588024     0.11800
H2000       H  0.17657368  0.39466000  0.45410014     0.11000
H2001       H  0.13240198  0.42002746  0.47377547     0.16400
H2002       H  0.08654592  0.38361207  0.54952137     0.12300
H2003       H  0.18337654  0.27003006  0.55454986     0.15200
H2004       H  0.22772866  0.30470602  0.47720737     0.14900
C2005       C  0.91628472  0.70083407  0.48966468    -0.17900
C2006       C  0.89311939  0.72168690  0.48787137    -0.20100
C2007       C  0.86578443  0.71617041  0.50185710     0.20500
C2008       C  0.86204453  0.68978379  0.51853503    -0.03000
C2009       C  0.88540213  0.66860088  0.52016163    -0.06100
C2010       C  0.91254598  0.67395511  0.50534449     0.20800
C2011       C  0.88109981  0.64153519  0.53557053     0.19000
C2012       C  0.85405843  0.63636875  0.55018925    -0.17600
C2013       C  0.83098268  0.65728571  0.54856693    -0.19800
C2014       C  0.83446121  0.68382919  0.53231624     0.20500
C2015       C  0.81033581  0.70353285  0.52804120    -0.32800
C2016       C  0.81338341  0.72888854  0.50984152     0.01200
C2017       C  0.84158623  0.73564636  0.49792238    -0.24100
C2018       C  0.93493317  0.65188324  0.50549852    -0.28700
C2019       C  0.93018488  0.62419777  0.51963234     0.06800
C2020       C  0.90341078  0.61961671  0.53518341    -0.27400
H2021       H  0.93688405  0.70541524  0.47813647     0.11600
H2022       H  0.89633996  0.74182972  0.47489389     0.12700
H2023       H  0.85046217  0.61575324  0.56228480     0.11800
H2024       H  0.81008666  0.65229662  0.55936041     0.11000
H2025       H  0.78865759  0.69791697  0.53683436     0.16400
H2026       H  0.84399480  0.75499569  0.48357411     0.12300
H2027       H  0.95540209  0.65568871  0.49344615     0.15200
H2028       H  0.89964193  0.59858928  0.54652568     0.14900
C2029       C  0.12490446  0.55849749  0.33884235    -0.17900
C2030       C  0.14477439  0.56176063  0.31523714    -0.20100
C2031       C  0.17024860  0.54383274  0.31371063     0.20500
C2032       C  0.17648465  0.52342006  0.33690325    -0.03000
C2033       C  0.15622680  0.52001391  0.36069012    -0.06100
C2034       C  0.12993155  0.53705941  0.36109949     0.20800
C2035       C  0.16189539  0.49909721  0.38360903     0.19000
C2036       C  0.18827988  0.48238307  0.38286967    -0.17600
C2037       C  0.20820103  0.48549019  0.35908342    -0.19800
C2038       C  0.20224413  0.50550882  0.33565330     0.20500
C2039       C  0.22051345  0.50667464  0.31020528    -0.32800
C2040       C  0.21300050  0.52528522  0.28602002     0.01200
C2041       C  0.18865560  0.54479674  0.28862238    -0.24100
C2042       C  0.10896827  0.53225617  0.38357488    -0.28700
C2043       C  0.11405491  0.51128352  0.40631220     0.06800
C2044       C  0.14092130  0.49512273  0.40656925    -0.27400
H2045       H  0.10541761  0.57249649  0.33950971     0.11600
H2046       H  0.13985659  0.57784042  0.29782343     0.12700
H2047       H  0.19321031  0.46640584  0.40036509     0.02800
H2048       H  0.22794928  0.47170124  0.35866958     0.11000
H2049       H  0.23907589  0.49144089  0.30817854     0.16400
H2050       H  0.18278394  0.55915272  0.26999540     0.12300
H2051       H  0.08880815  0.54526731  0.38371732     0.15200
H2052       H  0.14522505  0.47918979  0.42429063     0.14900
C2053       C  0.90245380  0.56807585  0.34385275    -0.17900
C2054       C  0.88034145  0.56978785  0.32182481    -0.20100
C2055       C  0.85371076  0.55377863  0.32489621     0.20500
C2056       C  0.84883306  0.53675614  0.35090327    -0.03000
C2057       C  0.87106766  0.53519888  0.37323507    -0.06100
C2058       C  0.89823496  0.55046749  0.36940797     0.20800
C2059       C  0.86648053  0.51756266  0.39891160     0.19000
C2060       C  0.83972194  0.50187198  0.40214042    -0.17600
C2061       C  0.81791250  0.50303688  0.37981046    -0.19800
C2062       C  0.82234321  0.52013870  0.35397326     0.20500
C2063       C  0.80167035  0.51935040  0.33036812    -0.32800
C2064       C  0.80743224  0.53455348  0.30363339     0.01200
C2065       C  0.83277932  0.55286320  0.30160322    -0.24100
C2066       C  0.92087546  0.54732597  0.39089510    -0.28700
C2067       C  0.91640107  0.52968475  0.41645838     0.06800
C2068       C  0.88898930  0.51532948  0.42057004    -0.27400
H2069       H  0.92306918  0.58011066  0.34064982     0.11600
H2070       H  0.88441811  0.58297608  0.30198484     0.12700
H2071       H  0.83590693  0.48817507  0.42168613     0.11800
H2072       H  0.79779512  0.49007283  0.38249629     0.11000
H2073       H  0.78248771  0.50480434  0.33174050     0.16400
H2074       H  0.83741517  0.56430743  0.28080294     0.12300
H2075       H  0.94194574  0.55861469  0.38781095     0.15200
H2076       H  0.88559456  0.50155919  0.44017180     0.14900
C2077       C  0.20743272  0.48787734  0.60503896    -0.17900
C2078       C  0.23161380  0.48889873  0.62490155    -0.20100
C2079       C  0.22953171  0.50461082  0.65188178     0.20500
C2080       C  0.20315198  0.52044490  0.65818556    -0.03000
C2081       C  0.17835144  0.51838587  0.63876452    -0.06100
C2082       C  0.18043506  0.50183558  0.61217798     0.20800
C2083       C  0.15118162  0.53204984  0.64651308     0.19000
C2084       C  0.14949127  0.54887962  0.67275926    -0.17600
C2085       C  0.17420119  0.55150040  0.69160208    -0.19800
C2086       C  0.20091434  0.53695337  0.68477277     0.20500
C2087       C  0.22448549  0.53664863  0.70529657    -0.32800
C2088       C  0.24918116  0.51790029  0.70107876     0.01200
C2089       C  0.25223148  0.50291062  0.67370391    -0.24100
C2090       C  0.15532747  0.49906624  0.59356804    -0.28700
C2091       C  0.12784737  0.51184492  0.60163924     0.06800
C2092       C  0.12607427  0.52838392  0.62813477    -0.27400
H2093       H  0.20952645  0.47530082  0.58455378     0.11600
H2094       H  0.25171825  0.47685445  0.61945204     0.12700
H2095       H  0.12891117  0.55967988  0.67894510     0.11800
H2096       H  0.17208391  0.56406771  0.71208804     0.11000
H2097       H  0.22169277  0.54754612  0.72668301     0.16400
H2098       H  0.27081007  0.48789209  0.67056672     0.12300
H2099       H  0.15704258  0.48649333  0.57302555     0.15200
H2100       H  0.10528371  0.53890158  0.63416704     0.14900
C2101       C  0.81985109  0.54166464  0.63881366    -0.17900
C2102       C  0.84311300  0.54195843  0.61826864    -0.20100
C2103       C  0.87259938  0.53786672  0.62779823     0.20500
C2104       C  0.87893519  0.53490666  0.65845863    -0.03000
C2105       C  0.85539095  0.53498761  0.67932543    -0.06100
C2106       C  0.82565076  0.53755134  0.66931645     0.20800
C2107       C  0.86145712  0.53064848  0.70991755     0.19000
C2108       C  0.89111160  0.52769574  0.71950443    -0.17600
C2109       C  0.91442670  0.52765754  0.69882585    -0.19800
C2110       C  0.90857452  0.53054231  0.66811778     0.20500
C2111       C  0.93156574  0.52815874  0.64685672    -0.32800
C2112       C  0.92519509  0.53001308  0.61601775     0.01200
C2113       C  0.89561223  0.53564911  0.60699269    -0.24100
C2114       C  0.80219101  0.53371399  0.68957542    -0.28700
C2115       C  0.80802532  0.52721618  0.71969152     0.06800
C2116       C  0.83770996  0.52708101  0.72995358    -0.27400
H2117       H  0.79722287  0.54377919  0.63071916     0.11600
H2118       H  0.83793087  0.54447630  0.59476414     0.12700
H2119       H  0.89622159  0.52445182  0.74293648     0.11800
H2120       H  0.93698116  0.52456195  0.70681251     0.11000
H2121       H  0.95416201  0.52410296  0.65428274     0.16400
H2122       H  0.89015529  0.53764007  0.58349582     0.12300
H2123       H  0.77947494  0.53295072  0.68143210     0.15200
H2124       H  0.84231647  0.52117870  0.75299242     0.14900
C2125       C  0.04335160  0.61937256  0.30182383    -0.17900
C2126       C  0.04795076  0.60331844  0.32812885    -0.20100
C2127       C  0.03903739  0.61509932  0.35561809     0.20500
C2128       C  0.02564832  0.64339424  0.35687280    -0.03000
C2129       C  0.02004582  0.65907913  0.33025512    -0.06100
C2130       C  0.02881197  0.64696580  0.30256057     0.20800
C2131       C  0.00418802  0.68604256  0.33124340     0.19000
C2132       C  0.99540232  0.69795296  0.35874380    -0.17600
C2133       C  0.00154512  0.68270976  0.38523117    -0.19800
C2134       C  0.01602202  0.65509448  0.38447964     0.20500
C2135       C  0.01910433  0.63801185  0.41048621    -0.32800
C2136       C  0.03038886  0.60899714  0.40876678     0.01200
C2137       C  0.04127227  0.59814579  0.38156443    -0.24100
C2138       C  0.02168710  0.66198962  0.27602862    -0.28700
C2139       C  0.00497328  0.68839070  0.27682984     0.06800
C2140       C  0.99626961  0.70008734  0.30465261    -0.27400
H2141       H  0.05001027  0.60963288  0.28080174     0.11600
H2142       H  0.05738583  0.58119365  0.32680035     0.12700
H2143       H  0.98326931  0.71878919  0.35970937     0.11800
H2144       H  0.99396239  0.69195443  0.40616080     0.11000
H2145       H  0.01047777  0.64625564  0.43144433     0.16400
H2146       H  0.04976336  0.57567276  0.38021206     0.12300
H2147       H  0.02851695  0.65276255  0.25483360     0.15200
H2148       H  0.98223266  0.71966492  0.30579133     0.14900
C2149       C  0.96037333  0.35899508  0.68591457    -0.17900
C2150       C  0.96694426  0.38610352  0.67186316    -0.20100
C2151       C  0.98700018  0.38704995  0.64801929     0.20500
C2152       C  0.00035715  0.36032382  0.63813900    -0.03000
C2153       C  0.99347612  0.33306400  0.65201415    -0.06100
C2154       C  0.97361958  0.33240217  0.67621406     0.20800
C2155       C  0.00686420  0.30652204  0.64190231     0.19000
C2156       C  0.02655616  0.30726479  0.61782605    -0.17600
C2157       C  0.03336914  0.33423960  0.60407628    -0.19800
C2158       C  0.02050501  0.36075370  0.61420209     0.20500
C2159       C  0.02675743  0.38756210  0.60004497    -0.32800
C2160       C  0.01256941  0.41394474  0.60869539     0.01200
C2161       C  0.99327149  0.41394371  0.63316707    -0.24100
C2162       C  0.96813840  0.30529255  0.69079959    -0.28700
C2163       C  0.98268025  0.27904750  0.68172540     0.06800
C2164       C  0.00131501  0.27979290  0.65672723    -0.27400
H2165       H  0.94506570  0.35885107  0.70448003     0.11600
H2166       H  0.95636719  0.40631168  0.67965327     0.12700
H2167       H  0.03691227  0.28702045  0.60982351     0.11800
H2168       H  0.04864261  0.33436955  0.58547524     0.11000
H2169       H  0.04156410  0.38770940  0.58103804     0.16400
H2170       H  0.98195135  0.43430609  0.63941881     0.12300
H2171       H  0.95339665  0.30479135  0.70982755     0.15200
H2172       H  0.01309184  0.25990928  0.64985633     0.14900
C2173       C  0.08055104  0.71236905  0.63186011    -0.17900
C2174       C  0.07479894  0.69096647  0.60997027    -0.20100
C2175       C  0.07185276  0.66082720  0.61789839     0.20500
C2176       C  0.07780051  0.65175369  0.64747520    -0.03000
C2177       C  0.08362443  0.67328958  0.66943595    -0.06100
C2178       C  0.08317935  0.70378409  0.66186708     0.20800
C2179       C  0.08683598  0.66463416  0.69953289     0.19000
C2180       C  0.08757972  0.63424511  0.70695746    -0.17600
C2181       C  0.08168408  0.61277835  0.68513771    -0.19800
C2182       C  0.07530972  0.62151070  0.65569402     0.20500
C2183       C  0.06473785  0.60088693  0.63483954    -0.32800
C2184       C  0.05639002  0.61018588  0.60597221     0.01200
C2185       C  0.06132158  0.63994879  0.59728663    -0.24100
C2186       C  0.08088046  0.72487179  0.68469269    -0.28700
C2187       C  0.07404889  0.71498336  0.71380091     0.06800
C2188       C  0.08481362  0.68645839  0.72175170    -0.27400
H2189       H  0.08059107  0.73572333  0.62564487     0.11600
H2190       H  0.07094311  0.69817886  0.58719162     0.12700
H2191       H  0.09036228  0.62720117  0.72993712     0.11800
H2192       H  0.08041568  0.58954009  0.69164129     0.11000
H2193       H  0.06203698  0.57780714  0.64148654     0.16400
H2194       H  0.05589345  0.64720434  0.57482757     0.12300
H2195       H  0.07817133  0.74799547  0.67846092     0.15200
H2196       H  0.08518355  0.67952749  0.74489339     0.14900
C2197       C  0.00936078  0.29978555  0.09989506    -0.17900
C2198       C  0.00813505  0.28031245  0.12438006    -0.20100
C2199       C  0.98812746  0.28548471  0.14773807     0.20500
C2200       C  0.96813551  0.30970800  0.14554482    -0.03000
C2201       C  0.96980337  0.32970284  0.12118369    -0.06100
C2202       C  0.99087841  0.32500336  0.09851229     0.20800
C2203       C  0.95126197  0.35511118  0.12024118     0.19000
C2204       C  0.92990220  0.35921034  0.14251471    -0.17600
C2205       C  0.92799590  0.33923597  0.16640562    -0.19800
C2206       C  0.94760849  0.31500714  0.16856051     0.20500
C2207       C  0.94847952  0.29738524  0.19435173    -0.32800
C2208       C  0.97036257  0.27529113  0.19813315     0.01200
C2209       C  0.98910618  0.26829697  0.17411980    -0.24100
C2210       C  0.99367886  0.34608149  0.07541805    -0.28700
C2211       C  0.97637838  0.37226567  0.07529570     0.06800
C2212       C  0.95492673  0.37638210  0.09753467    -0.27400
H2213       H  0.02547817  0.29566744  0.08252471     0.11600
H2214       H  0.02345114  0.26170728  0.12545933     0.12700
H2215       H  0.91518567  0.37831747  0.14188515     0.11800
H2216       H  0.91195986  0.34343140  0.18383439     0.11000
H2217       H  0.93378585  0.30256817  0.21271805     0.16400
H2218       H  0.00599907  0.25128093  0.17691485     0.12300
H2219       H  0.01001714  0.34264763  0.05808170     0.15200
H2220       H  0.94101414  0.39611510  0.09706378     0.14900
C2221       C  0.04110301  0.14867689  0.31986660    -0.17900
C2222       C  0.04112630  0.12428932  0.33936503    -0.20100
C2223       C  0.01463030  0.10915303  0.34574351     0.20500
C2224       C  0.98793294  0.11815269  0.33164469    -0.03000
C2225       C  0.98791382  0.14281220  0.31192136    -0.06100
C2226       C  0.01458447  0.15836254  0.30639037     0.20800
C2227       C  0.96104877  0.15264431  0.29873961     0.19000
C2228       C  0.93462990  0.13715363  0.30475437    -0.17600
C2229       C  0.93468859  0.11254729  0.32408609    -0.19800
C2230       C  0.96113605  0.10307873  0.33793060     0.20500
C2231       C  0.96122151  0.07925884  0.35842082    -0.32800
C2232       C  0.98764140  0.07079501  0.37301156     0.01200
C2233       C  0.01426123  0.08560429  0.36643930    -0.24100
C2234       C  0.01402311  0.18424223  0.28878287    -0.28700
C2235       C  0.98716453  0.19497713  0.27678148     0.06800
C2236       C  0.96087827  0.17864417  0.28107636    -0.27400
H2237       H  0.06175564  0.16037476  0.31582214     0.11600
H2238       H  0.06181397  0.11758222  0.34987185     0.12700
H2239       H  0.91380267  0.14438444  0.29490026     0.11800
H2240       H  0.91392574  0.10123785  0.32862488     0.11000
H2241       H  0.94070310  0.06771005  0.36354480     0.16400
H2242       H  0.03461012  0.07887549  0.37763583     0.12300
H2243       H  0.03415817  0.19719728  0.28594602     0.15200
H2244       H  0.94005219  0.18733192  0.27244515     0.14900
C2245       C  0.03058618  0.39802894  0.33594939    -0.17900
C2246       C  0.02780213  0.37594355  0.31415351    -0.20100
C2247       C  0.01129059  0.35003725  0.31984157     0.20500
C2248       C  0.99765811  0.34620828  0.34786962    -0.03000
C2249       C  0.00061601  0.36840959  0.36992661    -0.06100
C2250       C  0.01697440  0.39453538  0.36381802     0.20800
C2251       C  0.98707738  0.36453211  0.39799564     0.19000
C2252       C  0.97059797  0.33860082  0.40370055    -0.17600
C2253       C  0.96747791  0.31670070  0.38175571    -0.19800
C2254       C  0.98095612  0.32027836  0.35382613     0.20500
C2255       C  0.97794918  0.29842116  0.33173879    -0.32800
C2256       C  0.99152557  0.30201153  0.30376943     0.01200
C2257       C  0.00816189  0.32791669  0.29800177    -0.24100
C2258       C  0.01929014  0.41679021  0.38559861    -0.28700
C2259       C  0.00583709  0.41311745  0.41358573     0.06800
C2260       C  0.99004571  0.38676644  0.41975076    -0.27400
H2261       H  0.04331762  0.41790659  0.33096937     0.11600
H2262       H  0.03845432  0.37919565  0.29277871     0.12700
H2263       H  0.95999707  0.33531803  0.42509793     0.11800
H2264       H  0.95454363  0.29693152  0.38664505     0.11000
H2265       H  0.96469795  0.27874426  0.33617845     0.16400
H2266       H  0.01892109  0.33070874  0.27660342     0.12300
H2267       H  0.03181185  0.43688394  0.38087351     0.15200
H2268       H  0.97956322  0.38383569  0.44127793     0.14900
loop_ 
_geom_bond_atom_site_label_1 
_geom_bond_atom_site_label_2 
_geom_bond_distance 
_geom_bond_site_symmetry_2 
_ccdc_geom_bond_type 
C1            C2   1.407       .  A
C1            C6   1.412       .  A
C1         C2208   1.486       .  S
C2            C3   1.399       .  A
C2            H7   1.084       .  S
C3            C4   1.398       .  A
C3         C2256   1.484       .  S
C4            C5   1.402       .  A
C4            H8   1.084       .  S
C5            C6   1.411       .  A
C5         C2235   1.479       .  S
C6            H9   1.083       .  S
O10          C21   1.293       .  A
O10         Eu46   2.465       .  S
O11          C22   1.291       .  A
O11         Eu45   2.469       .  S
O12          C23   1.292       .  A
O12         Eu18   2.467       .  S
O13          C24   1.295       .  A
O13         Eu18   2.472   1_655  S
O14          C24   1.297       .  A
O14         Eu48   2.500       .  S
O15          C23   1.289       .  A
O15         Eu47   2.448       .  S
O16          C22   1.284       .  A
O16         Eu18   2.408       .  S
O17          C21   1.290       .  A
O17         Eu18   2.447       .  S
Eu18         O28   2.342   1_455  S
Eu18         O20   2.352       .  S
Eu18         O19   2.349   1_455  S
Eu18         O26   2.360       .  S
O19         Eu48   2.349       .  S
O19         Eu45   2.360   1_655  S
O20         Eu46   2.341       .  S
O20         Eu47   2.347       .  S
C21        C2259   1.478       .  S
C22        C2160   1.461       .  S
C23        C1992   1.472       .  S
C24        C1971   1.502       .  S
H25          O26   0.965       .  S
O26         Eu47   2.363       .  S
O26         Eu45   2.363       .  S
H27          O28   0.964       .  S
O28         Eu46   2.354   1_655  S
O28         Eu48   2.359       .  S
O29          C52   1.290       .  A
O29         Eu45   2.448       .  S
O30          C53   1.286       .  A
O30         Eu46   2.416       .  S
O31          C54   1.287       .  A
O31         Eu47   2.430       .  S
O32          C55   1.292       .  A
O32         Eu48   2.457       .  S
O33          C56   1.293       .  A
O33         Eu48   2.466       .  S
O34          C57   1.290       .  A
O34         Eu47   2.460       .  S
O35          C58   1.294       .  A
O35         Eu49   2.479       .  S
O36          C59   1.297       .  A
O36         Eu49   2.493   1_655  S
O37          C58   1.292       .  A
O37         Eu47   2.465       .  S
O38          C59   1.293       .  A
O38         Eu48   2.465       .  S
O39          C54   1.299       .  A
O39         Eu45   2.501       .  S
O40          C57   1.295       .  A
O40         Eu46   2.478       .  S
O41          C56   1.292       .  A
O41         Eu46   2.461   1_655  S
O42          C55   1.298       .  A
O42         Eu45   2.499   1_655  S
O43          C52   1.289       .  A
O43         Eu49   2.440       .  S
O44          C53   1.291       .  A
O44         Eu49   2.461       .  S
Eu45         O63   2.369   1_455  S
Eu45         O51   2.341       .  S
Eu46         O50   2.363   1_455  S
Eu46         O61   2.353       .  S
Eu47         O61   2.343       .  S
Eu47         O51   2.340       .  S
Eu48         O50   2.358       .  S
Eu48         O63   2.373       .  S
Eu49         O50   2.353   1_455  S
Eu49         O61   2.360       .  S
Eu49         O63   2.365   1_455  S
Eu49         O51   2.339       .  S
C52        C2184   1.477       .  S
C53        C2136   1.464       .  S
C54        C2091   1.486       .  S
C55        C2112   1.500       .  S
C56        C2067   1.477       .  S
C57        C2043   1.484       .  S
C58        C1944   1.483       .  S
C59        C2019   1.494       .  S
H60          O61   0.965       .  S
H62          O63   0.968       .  S
C64          C65   1.408       .  A
C64          C69   1.400   1_655  A
C64        C1899   1.479       .  S
C65          C66   1.410       .  A
C65          H70   1.083       .  S
C66          C67   1.406   1_655  A
C66        C1923   1.485       .  S
C67          C68   1.409       .  A
C67          H71   1.080       .  S
C68          C69   1.409       .  A
C68        C2187   1.511       .  S
C69          H72   1.080       .  S
C73          C74   1.399       .  A
C73          C78   1.419       .  A
C73        C1851   1.486       .  S
C74          C75   1.393       .  A
C74          H79   1.085       .  S
C75          C76   1.397       .  A
C75        C2163   1.480       .  S
C76          C77   1.404       .  A
C76          H80   1.084       .  S
C77          C78   1.421       .  A
C77        C1875   1.492       .  S
C78          H81   1.083       .  S
C82          C83   1.411       .  A
C82          C87   1.422       .  A
C82        C1800   1.495       .  S
C83          C84   1.401       .  A
C83          H88   1.083       .  S
C84          C85   1.391       .  A
C84        C2139   1.484   1_655  S
C85          C86   1.393       .  A
C85          H89   1.085       .  S
C86          C87   1.416       .  A
C86        C1824   1.484       .  S
C87          H90   1.083       .  S
O91         C102   1.289       .  A
O91        Eu127   2.461   1_545  S
O92         C103   1.291       .  A
O92        Eu126   2.460   1_545  S
O93         C104   1.287       .  A
O93         Eu99   2.425       .  S
O94         C105   1.287       .  A
O94         Eu99   2.423   1_455  S
O95         C105   1.291       .  A
O95        Eu129   2.459   1_545  S
O96         C104   1.293       .  A
O96        Eu128   2.468   1_545  S
O97         C103   1.294       .  A
O97         Eu99   2.476       .  S
O98         C102   1.292       .  A
O98         Eu99   2.470       .  S
Eu99        O109   2.349   1_645  S
Eu99        O101   2.345   1_545  S
Eu99        O100   2.348   1_645  S
Eu99        O107   2.354   1_545  S
O100       Eu129   2.349       .  S
O100       Eu126   2.345   1_455  S
O101       Eu127   2.353       .  S
O101       Eu128   2.367       .  S
C102       C2232   1.474       .  S
C103       C1872   1.484       .  S
C104       C1755   1.469       .  S
C105       C1779   1.468       .  S
H106        O107   0.966   1_545  S
O107       Eu128   2.352       .  S
O107       Eu126   2.341       .  S
H108        O109   0.966   1_545  S
O109       Eu127   2.335   1_455  S
O109       Eu129   2.357       .  S
O110        C133   1.286       .  A
O110       Eu126   2.419       .  S
O111        C134   1.289       .  A
O111       Eu127   2.445       .  S
O112        C135   1.300       .  A
O112       Eu128   2.512       .  S
O113        C136   1.298       .  A
O113       Eu129   2.496       .  S
O114        C137   1.294       .  A
O114       Eu129   2.479       .  S
O115        C138   1.293       .  A
O115       Eu128   2.466       .  S
O116        C139   1.293       .  A
O116       Eu130   2.462       .  S
O117        C140   1.292       .  A
O117       Eu130   2.468   1_455  S
O118        C139   1.292       .  A
O118       Eu128   2.457       .  S
O119        C140   1.285       .  A
O119       Eu129   2.413       .  S
O120        C135   1.290       .  A
O120       Eu126   2.450       .  S
O121        C138   1.288       .  A
O121       Eu127   2.436       .  S
O122        C137   1.290       .  A
O122       Eu127   2.457   1_455  S
O123        C136   1.292       .  A
O123       Eu126   2.468   1_455  S
O124        C133   1.301       .  A
O124       Eu130   2.525       .  S
O125        C134   1.301       .  A
O125       Eu130   2.515       .  S
Eu126       O144   2.354   1_655  S
Eu126       O132   2.367       .  S
Eu127       O131   2.357   1_655  S
Eu127       O142   2.341       .  S
Eu128       O142   2.356       .  S
Eu128       O132   2.360       .  S
Eu129       O131   2.358       .  S
Eu129       O144   2.358       .  S
Eu130       O131   2.371   1_655  S
Eu130       O142   2.345       .  S
Eu130       O144   2.365   1_655  S
Eu130       O132   2.374       .  S
C133       C1920   1.498       .  S
C134       C1827   1.494       .  S
C135       C1608   1.505       .  S
C136       C1635   1.493       .  S
C137       C1656   1.483       .  S
C138       C1683   1.464       .  S
C139       C1728   1.483       .  S
C140       C1704   1.463       .  S
H141        O142   0.963       .  S
H143        O144   0.966       .  S
C145        C146   1.401       .  A
C145        C150   1.414       .  A
C145       C1995   1.479       .  S
C146        C147   1.399       .  A
C146        H151   1.084       .  S
C147        C148   1.395       .  A
C147       C1776   1.483       .  S
C148        C149   1.401       .  A
C148        H152   1.083       .  S
C149        C150   1.413       .  A
C149       C1587   1.483       .  S
C150        H153   1.083       .  S
C154        C155   1.395       .  A
C154        C159   1.423       .  A
C154       C1560   1.488       .  S
C155        C156   1.389       .  A
C155        H160   1.085       .  S
C156        C157   1.400       .  A
C156       C1752   1.484       .  S
C157        C158   1.414       .  A
C157        H161   1.082       .  S
C158        C159   1.427       .  A
C158       C1968   1.510       .  S
C159        H162   1.082       .  S
C163        C164   1.416       .  A
C163        C168   1.402       .  A
C163       C1536   1.487       .  S
C164        C165   1.415       .  A
C164        H169   1.083       .  S
C165        C166   1.403       .  A
C165       C2016   1.494       .  S
C166        C167   1.409       .  A
C166        H170   1.080       .  S
C167        C168   1.406       .  A
C167       C1731   1.513       .  S
C168        H171   1.081       .  S
C172        C173   1.393       .  A
C172        C177   1.419       .  A
C172       C1947   1.482       .  S
C173        C174   1.385       .  A
C173        H178   1.086       .  S
C174        C175   1.398       .  A
C174       C1707   1.477       .  S
C175        C176   1.410       .  A
C175        H179   1.083       .  S
C176        C177   1.424       .  A
C176       C1512   1.498       .  S
C177        H180   1.083       .  S
C181        C182   1.409       .  A
C181        C186   1.416       .  A
C181       C1464   1.487       .  S
C182        C183   1.396       .  A
C182        H187   1.084       .  S
C183        C184   1.388       .  A
C183       C1491   1.472   1_565  S
C184        C185   1.396       .  A
C184        H188   1.086       .  S
C185        C186   1.411       .  A
C185       C1680   1.472       .  S
C186        H189   1.083       .  S
O190        C201   1.291       .  A
O190       Eu226   2.462       .  S
O191        C202   1.296       .  A
O191       Eu225   2.493       .  S
O192        C203   1.294       .  A
O192       Eu198   2.470       .  S
O193        C204   1.288       .  A
O193       Eu198   2.431       .  S
O194        C204   1.289       .  A
O194       Eu228   2.449       .  S
O195        C203   1.290       .  A
O195       Eu227   2.448       .  S
O196        C202   1.293       .  A
O196       Eu198   2.465   1_565  S
O197        C201   1.293       .  A
O197       Eu198   2.468       .  S
Eu198       O208   2.353       .  S
Eu198       O200   2.353       .  S
Eu198       O199   2.356   1_545  S
Eu198       O206   2.346   1_545  S
O199       Eu228   2.357   1_565  S
O199       Eu225   2.350       .  S
O200       Eu226   2.355       .  S
O200       Eu227   2.357       .  S
C201       C1584   1.481       .  S
C202       C1515   1.498       .  S
C203       C1392   1.475   1_545  S
C204       C1440   1.462       .  S
H205        O206   0.966       .  S
O206       Eu227   2.351   1_565  S
O206       Eu225   2.350       .  S
H207        O208   0.965       .  S
O208       Eu226   2.351       .  S
O208       Eu228   2.358       .  S
O209        C232   1.292       .  A
O209       Eu225   2.457       .  S
O210        C233   1.293       .  A
O210       Eu226   2.477       .  S
O211        C234   1.298       .  A
O211       Eu227   2.490   1_565  S
O212        C235   1.301       .  A
O212       Eu228   2.513   1_565  S
O213        C236   1.298       .  A
O213       Eu228   2.500       .  S
O214        C237   1.297       .  A
O214       Eu227   2.494       .  S
O215        C238   1.290       .  A
O215       Eu229   2.454       .  S
O216        C239   1.290       .  A
O216       Eu229   2.450       .  S
O217        C238   1.287       .  A
O217       Eu227   2.431       .  S
O218        C239   1.289       .  A
O218       Eu228   2.440       .  S
O219        C234   1.291       .  A
O219       Eu225   2.459       .  S
O220        C237   1.287       .  A
O220       Eu226   2.440       .  S
O221        C236   1.287       .  A
O221       Eu226   2.441       .  S
O222        C235   1.289       .  A
O222       Eu225   2.441       .  S
O223        C232   1.297       .  A
O223       Eu229   2.497   1_565  S
O224        C233   1.295       .  A
O224       Eu229   2.485       .  S
Eu225       O243   2.377       .  S
Eu225       O231   2.355       .  S
Eu226       O230   2.343       .  S
Eu226       O241   2.356       .  S
Eu227       O241   2.358       .  S
Eu227       O231   2.355   1_545  S
Eu228       O230   2.345       .  S
Eu228       O243   2.369   1_545  S
Eu229       O230   2.343       .  S
Eu229       O241   2.364       .  S
Eu229       O243   2.374   1_545  S
Eu229       O231   2.357   1_545  S
C232       C1539   1.501       .  S
C233       C1563   1.486       .  S
C234       C1323   1.495       .  S
C235       C1368   1.498       .  S
C236       C1344   1.480       .  S
C237       C1299   1.476       .  S
C238       C1488   1.457       .  S
C239       C1419   1.478       .  S
H240        O241   0.966       .  S
H242        O243   0.965       .  S
C244        C245   1.421       .  A
C244        C249   1.394       .  A
C244       C1272   1.488       .  S
C245        C246   1.425       .  A
C245        H250   1.082       .  S
C246        C247   1.407       .  A
C246       C1632   1.495       .  S
C247        C248   1.398       .  A
C247        H251   1.084       .  S
C248        C249   1.389       .  A
C248       C1443   1.477       .  S
C249        H252   1.085       .  S
C253        C254   1.416       .  A
C253        C258   1.403   1_565  A
C253       C1248   1.494       .  S
C254        C255   1.417       .  A
C254        H259   1.083       .  S
C255        C256   1.402   1_565  A
C255       C1611   1.493       .  S
C256        C257   1.411       .  A
C256        H260   1.079       .  S
C257        C258   1.410       .  A
C257       C1416   1.515       .  S
C258        H261   1.079       .  S
C262        C263   1.403       .  A
C262        C267   1.410       .  A
C262       C1224   1.475       .  S
C263        C264   1.398       .  A
C263        H268   1.085       .  S
C264        C265   1.399       .  A
C264       C1395   1.484       .  S
C265        C266   1.404       .  A
C265        H269   1.084       .  S
C266        C267   1.410       .  A
C266       C1659   1.481       .  S
C267        H270   1.083       .  S
O271        C282   1.295       .  A
O271       Eu307   2.482   1_554  S
O272        C283   1.287       .  A
O272       Eu306   2.439   1_554  S
O273        C284   1.291       .  A
O273       Eu279   2.453   1_545  S
O274        C285   1.283       .  A
O274       Eu279   2.397       .  S
O275        C285   1.294       .  A
O275       Eu309   2.484   1_554  S
O276        C284   1.291       .  A
O276       Eu308   2.458   1_554  S
O277        C283   1.292       .  A
O277       Eu279   2.468       .  S
O278        C282   1.293       .  A
O278       Eu279   2.468       .  S
Eu279       O289   2.363       .  S
Eu279       O281   2.340       .  S
Eu279       O280   2.348       .  S
Eu279       O287   2.352   1_565  S
O280       Eu309   2.356   1_554  S
O280       Eu306   2.348   1_554  S
O281       Eu307   2.353   1_554  S
O281       Eu308   2.351   1_564  S
C282       C1467   1.492       .  S
C283       C1227   1.469       .  S
C284       C1200   1.478       .  S
C285       C1176   1.467       .  S
H286        O287   0.965       .  S
O287       Eu308   2.350   1_554  S
O287       Eu306   2.348   1_544  S
H288        O289   0.966       .  S
O289       Eu307   2.363   1_554  S
O289       Eu309   2.371   1_554  S
O290        C313   1.290       .  A
O290       Eu306   2.455       .  S
O291        C314   1.291       .  A
O291       Eu307   2.454       .  S
O292        C315   1.297       .  A
O292       Eu308   2.497       .  S
O293        C316   1.299       .  A
O293       Eu309   2.512       .  S
O294        C317   1.302       .  A
O294       Eu309   2.520       .  S
O295        C318   1.296       .  A
O295       Eu308   2.480       .  S
O296        C319   1.295       .  A
O296       Eu310   2.481   1_545  S
O297        C320   1.291       .  A
O297       Eu310   2.445       .  S
O298        C319   1.285       .  A
O298       Eu308   2.414       .  S
O299        C320   1.293       .  A
O299       Eu309   2.463       .  S
O300        C315   1.288       .  A
O300       Eu306   2.446   1_545  S
O301        C318   1.296       .  A
O301       Eu307   2.488   1_545  S
O302        C317   1.293       .  A
O302       Eu307   2.464       .  S
O303        C316   1.287       .  A
O303       Eu306   2.443       .  S
O304        C313   1.298       .  A
O304       Eu310   2.500       .  S
O305        C314   1.301       .  A
O305       Eu310   2.519       .  S
Eu306       O324   2.332       .  S
Eu306       O312   2.348   1_565  S
Eu307       O311   2.368       .  S
Eu307       O322   2.366       .  S
Eu308       O322   2.372   1_545  S
Eu308       O312   2.351       .  S
Eu309       O311   2.375       .  S
Eu309       O324   2.356       .  S
Eu310       O311   2.365       .  S
Eu310       O322   2.364       .  S
Eu310       O324   2.358       .  S
Eu310       O312   2.359   1_565  S
C313       C1275   1.488       .  S
C314       C1251   1.508       .  S
C315       C1104   1.484       .  S
C316       C1056   1.481       .  S
C317       C1080   1.509       .  S
C318       C1032   1.497       .  S
C319       C1128   1.472       .  S
C320       C1152   1.479       .  S
H321        O322   0.967   1_545  S
H323        O324   0.963       .  S
C325        C326   1.405       .  A
C325        C330   1.413       .  A
C325       C1296   1.486       .  S
C326        C327   1.399       .  A
C326        H331   1.084       .  S
C327        C328   1.399       .  A
C327       C1203   1.487       .  S
C328        C329   1.407       .  A
C328        H332   1.083       .  S
C329        C330   1.415       .  A
C329       C1008   1.492       .  S
C330        H333   1.083       .  S
C334        C335   1.400       .  A
C334        C339   1.419       .  A
C334        C984   1.482       .  S
C335        C336   1.393       .  A
C335        H340   1.085       .  S
C336        C337   1.397       .  A
C336       C1179   1.479       .  S
C337        C338   1.406       .  A
C337        H341   1.085       .  S
C338        C339   1.419       .  A
C338       C1320   1.493       .  S
C339        H342   1.083       .  S
C343        C344   1.407       .  A
C343        C348   1.403       .  A
C343        C963   1.479       .  S
C344        C345   1.406       .  A
C344        H349   1.083       .  S
C345        C346   1.404       .  A
C345       C1371   1.484       .  S
C346        C347   1.411       .  A
C346        H350   1.080       .  S
C347        C348   1.411       .  A
C347       C1155   1.515       .  S
C348        H351   1.080       .  S
C352        C353   1.398       .  A
C352        C357   1.417       .  A
C352       C1347   1.483       .  S
C353        C354   1.393       .  A
C353        H358   1.084       .  S
C354        C355   1.403       .  A
C354       C1131   1.489       .  S
C355        C356   1.407       .  A
C355        H359   1.082       .  S
C356        C357   1.421       .  A
C356        C936   1.498       .  S
C357        H360   1.083       .  S
O361        C372   1.288       .  A
O361       Eu397   2.443   1_554  S
O362        C373   1.295       .  A
O362       Eu396   2.480   1_554  S
O363        C374   1.291       .  A
O363       Eu369   2.457   1_455  S
O364        C375   1.285       .  A
O364       Eu369   2.412       .  S
O365        C375   1.291       .  A
O365       Eu399   2.465   1_554  S
O366        C374   1.287       .  A
O366       Eu398   2.433   1_554  S
O367        C373   1.295       .  A
O367       Eu369   2.473       .  S
O368        C372   1.296       .  A
O368       Eu369   2.488       .  S
Eu369       O379   2.353       .  S
Eu369       O371   2.344   1_655  S
Eu369       O370   2.353   1_554  S
Eu369       O377   2.353   1_655  S
O370       Eu399   2.346       .  S
O370       Eu396   2.342       .  S
O371       Eu397   2.352   1_454  S
O371       Eu398   2.357   1_554  S
C372       C2211   1.481       .  S
C373       C1803   1.496       .  S
C374        C888   1.465       .  S
C375        C912   1.453       .  S
H376        O377   0.966       .  S
O377       Eu398   2.343   1_554  S
O377       Eu396   2.345   1_454  S
H378        O379   0.966       .  S
O379       Eu397   2.353   1_554  S
O379       Eu399   2.364   1_554  S
O380        C403   1.287       .  A
O380       Eu396   2.426       .  S
O381        C404   1.287       .  A
O381       Eu397   2.445       .  S
O382        C405   1.296       .  A
O382       Eu398   2.490       .  S
O383        C406   1.298       .  A
O383       Eu399   2.501       .  S
O384        C407   1.293       .  A
O384       Eu399   2.466       .  S
O385        C408   1.291       .  A
O385       Eu398   2.457       .  S
O386        C409   1.291       .  A
O386       Eu400   2.448   1_455  S
O387        C410   1.290       .  A
O387       Eu400   2.450       .  S
O388        C409   1.288       .  A
O388       Eu398   2.435       .  S
O389        C410   1.290       .  A
O389       Eu399   2.444       .  S
O390        C405   1.291       .  A
O390       Eu396   2.466   1_455  S
O391        C408   1.290       .  A
O391       Eu397   2.455   1_455  S
O392        C407   1.291       .  A
O392       Eu397   2.455       .  S
O393        C406   1.290       .  A
O393       Eu396   2.451       .  S
O394        C403   1.299       .  A
O394       Eu400   2.507       .  S
O395        C404   1.300       .  A
O395       Eu400   2.520       .  S
Eu396       O414   2.371       .  S
Eu396       O402   2.358   1_655  S
Eu397       O401   2.340       .  S
Eu397       O412   2.346   1_655  S
Eu398       O412   2.359       .  S
Eu398       O402   2.353       .  S
Eu399       O401   2.352       .  S
Eu399       O414   2.358       .  S
Eu400       O401   2.345       .  S
Eu400       O412   2.351   1_655  S
Eu400       O414   2.377       .  S
Eu400       O402   2.372   1_655  S
C403       C1896   1.495       .  S
C404       C1848   1.486       .  S
C405        C795   1.486       .  S
C406        C744   1.499       .  S
C407        C768   1.481       .  S
C408        C819   1.466       .  S
C409        C864   1.465       .  S
C410        C840   1.477       .  S
H411        O412   0.965       .  S
H413        O414   0.966       .  S
C415        C416   1.403       .  A
C415        C420   1.416       .  A
C415       C2064   1.481       .  S
C416        C417   1.393       .  A
C416        H421   1.085       .  S
C417        C418   1.389       .  A
C417        C915   1.464       .  S
C418        C419   1.396       .  A
C418        H422   1.086       .  S
C419        C420   1.413       .  A
C419        C720   1.475       .  S
C420        H423   1.083       .  S
C424        C425   1.415       .  A
C424        C429   1.404       .  A
C424        C699   1.485       .  S
C425        C426   1.416       .  A
C425        H430   1.083       .  S
C426        C427   1.404       .  A
C426       C2040   1.486       .  S
C427        C428   1.397       .  A
C427        H431   1.084       .  S
C428        C429   1.397       .  A
C428        C891   1.480       .  S
C429        H432   1.085       .  S
C433        C434   1.405       .  A
C433        C438   1.417       .  A
C433        C675   1.485       .  S
C434        C435   1.397       .  A
C434        H439   1.083       .  S
C435        C436   1.396       .  A
C435        C867   1.482       .  S
C436        C437   1.398       .  A
C436        H440   1.085       .  S
C437        C438   1.414       .  A
C437       C2088   1.482       .  S
C438        H441   1.083       .  S
C442        C443   1.410       .  A
C442        C447   1.400       .  A
C442       C2115   1.484       .  S
C443        C444   1.412       .  A
C443        H448   1.083       .  S
C444        C445   1.404       .  A
C444        C648   1.484       .  S
C445        C446   1.411       .  A
C445        H449   1.080       .  S
C446        C447   1.408       .  A
C446        C843   1.513       .  S
C447        H450   1.079       .  S
C451        C452   1.412       .  A
C451        C456   1.402       .  A
C451        C816   1.482       .  S
C452        C453   1.413       .  A
C452        H457   1.083       .  S
C453        C454   1.408       .  A
C453       C1107   1.491       .  S
C454        C455   1.400       .  A
C454        H458   1.082       .  S
C455        C456   1.398       .  A
C455        C627   1.490       .  S
C456        H459   1.083       .  S
O460        C471   1.289       .  A
O460       Eu496   2.453       .  S
O461        C472   1.293       .  A
O461       Eu495   2.465       .  S
O462        C473   1.289       .  A
O462       Eu468   2.433       .  S
O463        C474   1.290       .  A
O463       Eu468   2.445       .  S
O464        C474   1.292       .  A
O464       Eu498   2.465       .  S
O465        C473   1.295       .  A
O465       Eu497   2.478       .  S
O466        C472   1.297       .  A
O466       Eu468   2.493   1_556  S
O467        C471   1.296       .  A
O467       Eu468   2.487       .  S
Eu468       O478   2.353       .  S
Eu468       O470   2.360       .  S
Eu468       O469   2.355   1_554  S
Eu468       O476   2.355   1_554  S
O469       Eu498   2.351   1_556  S
O469       Eu495   2.355       .  S
O470       Eu496   2.352       .  S
O470       Eu497   2.355       .  S
C471       C1011   1.481       .  S
C472        C939   1.495       .  S
C473        C624   1.481   1_554  S
C474        C552   1.472       .  S
H475        O476   0.965       .  S
O476       Eu497   2.360   1_556  S
O476       Eu495   2.348       .  S
H477        O478   0.966       .  S
O478       Eu496   2.360       .  S
O478       Eu498   2.365       .  S
O479        C502   1.290       .  A
O479       Eu495   2.448       .  S
O480        C503   1.290       .  A
O480       Eu496   2.452       .  S
O481        C504   1.294       .  A
O481       Eu497   2.473   1_556  S
O482        C505   1.298       .  A
O482       Eu498   2.498   1_556  S
O483        C506   1.293       .  A
O483       Eu498   2.471       .  S
O484        C507   1.297       .  A
O484       Eu497   2.494       .  S
O485        C508   1.287       .  A
O485       Eu499   2.443       .  S
O486        C509   1.289       .  A
O486       Eu499   2.439       .  S
O487        C508   1.290       .  A
O487       Eu497   2.445       .  S
O488        C509   1.288       .  A
O488       Eu498   2.436       .  S
O489        C504   1.294       .  A
O489       Eu495   2.475       .  S
O490        C507   1.291       .  A
O490       Eu496   2.462       .  S
O491        C506   1.289       .  A
O491       Eu496   2.451       .  S
O492        C505   1.291       .  A
O492       Eu495   2.455       .  S
O493        C502   1.295       .  A
O493       Eu499   2.483   1_556  S
O494        C503   1.293       .  A
O494       Eu499   2.478       .  S
Eu495       O513   2.362       .  S
Eu495       O501   2.347       .  S
Eu496       O500   2.341       .  S
Eu496       O511   2.357       .  S
Eu497       O511   2.358       .  S
Eu497       O501   2.357   1_554  S
Eu498       O500   2.347       .  S
Eu498       O513   2.361   1_554  S
Eu499       O500   2.340       .  S
Eu499       O511   2.365       .  S
Eu499       O513   2.356   1_554  S
Eu499       O501   2.351   1_554  S
C502        C960   1.492       .  S
C503        C987   1.476       .  S
C504        C672   1.490       .  S
C505        C651   1.499       .  S
C506        C723   1.471       .  S
C507        C696   1.488       .  S
C508        C576   1.458       .  S
C509        C603   1.474       .  S
H510        O511   0.966       .  S
H512        O513   0.966       .  S
C514        C515   1.417       .  A
C514        C519   1.401       .  A
C514       C1083   1.494       .  S
C515        C516   1.418       .  A
C515        H520   1.083       .  S
C516        C517   1.401       .  A
C516        C747   1.489       .  S
C517        C518   1.406   1_556  A
C517        H521   1.080   1_556  S
C518        C519   1.409   1_554  A
C518        C600   1.512       .  S
C519        H522   1.080   1_556  S
C523        C524   1.397       .  A
C523        C528   1.419       .  A
C523       C1059   1.483       .  S
C524        C525   1.387       .  A
C524        H529   1.086       .  S
C525        C526   1.397       .  A
C525        C579   1.470       .  S
C526        C527   1.405       .  A
C526        H530   1.085       .  S
C527        C528   1.422       .  A
C527        C792   1.491       .  S
C528        H531   1.083       .  S
C532        C533   1.395       .  A
C532        C537   1.415       .  A
C532        C771   1.481       .  S
C533        C534   1.391   1_556  A
C533        H538   1.086   1_556  S
C534        C535   1.402   1_554  A
C534        C555   1.483       .  S
C535        C536   1.410       .  A
C535        H539   1.083       .  S
C536        C537   1.420       .  A
C536       C1035   1.493       .  S
C537        H540   1.083       .  S
C541        C542   1.397       .  A
C541        C546   1.404   1_556  A
C541        H557   1.084       .  S
C542        C543   1.402   1_556  A
C542        H558   1.084       .  S
C543        C553   1.402       .  A
C543        C544   1.414       .  A
C544        C550   1.410       .  A
C544        C545   1.409       .  A
C545        C547   1.414       .  A
C545        C546   1.408       .  A
C546        C554   1.395   1_554  A
C547        C556   1.404       .  A
C547        C548   1.402       .  A
C548        C549   1.399       .  A
C548        H559   1.084       .  S
C549        C550   1.404       .  A
C549        H560   1.083       .  S
C550        C551   1.400       .  A
C551        C552   1.406       .  A
C551        H561   1.085       .  S
C552        C553   1.404       .  A
C553        H562   1.084   1_554  S
C554        C555   1.411   1_556  A
C554        H563   1.084       .  S
C555        C556   1.404       .  A
C556        H564   1.084       .  S
C565        C566   1.393       .  A
C565        C570   1.401       .  A
C565        H581   1.084       .  S
C566        C567   1.401       .  A
C566        H582   1.083       .  S
C567        C577   1.392       .  A
C567        C568   1.411   1_554  A
C568        C574   1.414       .  A
C568        C569   1.406       .  A
C569        C571   1.411       .  A
C569        C570   1.412   1_556  A
C570        C578   1.395   1_554  A
C571        C580   1.401       .  A
C571        C572   1.404       .  A
C572        C573   1.400       .  A
C572        H583   1.084       .  S
C573        C574   1.404       .  A
C573        H584   1.084       .  S
C574        C575   1.404       .  A
C575        C576   1.404   1_556  A
C575        H585   1.085       .  S
C576        C577   1.398       .  A
C577        H586   1.085       .  S
C578        C579   1.401       .  A
C578        H587   1.085   1_556  S
C579        C580   1.406       .  A
C580        H588   1.084       .  S
C589        C590   1.398       .  A
C589        C594   1.404       .  A
C589        H605   1.084       .  S
C590        C591   1.403       .  A
C590        H606   1.084       .  S
C591        C601   1.400       .  A
C591        C592   1.410       .  A
C592        C598   1.409       .  A
C592        C593   1.404       .  A
C593        C595   1.410       .  A
C593        C594   1.410       .  A
C594        C602   1.398       .  A
C595        C604   1.396       .  A
C595        C596   1.403       .  A
C596        C597   1.397       .  A
C596        H607   1.084       .  S
C597        C598   1.403       .  A
C597        H608   1.084       .  S
C598        C599   1.400       .  A
C599        C600   1.413       .  A
C599        H609   1.081       .  S
C600        C601   1.411       .  A
C601        H610   1.082       .  S
C602        C603   1.407       .  A
C602        H611   1.084       .  S
C603        C604   1.407       .  A
C604        H612   1.084       .  S
C613        C614   1.397   1_556  A
C613        C618   1.403       .  A
C613        H629   1.084   1_556  S
C614        C615   1.403   1_554  A
C614        H630   1.084       .  S
C615        C625   1.398   1_556  A
C615        C616   1.409       .  A
C616        C622   1.412       .  A
C616        C617   1.410       .  A
C617        C619   1.409       .  A
C617        C618   1.411       .  A
C618        C626   1.400       .  A
C619        C628   1.402       .  A
C619        C620   1.404       .  A
C620        C621   1.400       .  A
C620        H631   1.084       .  S
C621        C622   1.403       .  A
C621        H632   1.084       .  S
C622        C623   1.405       .  A
C623        C624   1.407       .  A
C623        H633   1.084       .  S
C624        C625   1.409   1_556  A
C625        H634   1.084       .  S
C626        C627   1.408       .  A
C626        H635   1.083       .  S
C627        C628   1.410       .  A
C628        H636   1.083       .  S
C637        C638   1.399       .  A
C637        C642   1.404       .  A
C637        H653   1.084       .  S
C638        C639   1.403       .  A
C638        H654   1.084       .  S
C639        C649   1.407       .  A
C639        C640   1.414       .  A
C640        C646   1.411       .  A
C640        C641   1.418       .  A
C641        C643   1.413       .  A
C641        C642   1.409       .  A
C642        C650   1.403       .  A
C643        C652   1.413       .  A
C643        C644   1.405       .  A
C644        C645   1.404       .  A
C644        H655   1.083       .  S
C645        C646   1.406       .  A
C645        H656   1.084       .  S
C646        C647   1.409       .  A
C647        C648   1.409       .  A
C647        H657   1.084       .  S
C648        C649   1.404       .  A
C649        H658   1.084       .  S
C650        C651   1.413       .  A
C650        H659   1.084       .  S
C651        C652   1.412       .  A
C652        H660   1.084       .  S
C661        C662   1.400       .  A
C661        C666   1.403       .  A
C661        H677   1.083       .  S
C662        C663   1.404       .  A
C662        H678   1.084       .  S
C663        C673   1.405       .  A
C663        C664   1.410       .  A
C664        C670   1.413       .  A
C664        C665   1.416       .  A
C665        C667   1.410       .  A
C665        C666   1.414       .  A
C666        C674   1.408       .  A
C667        C676   1.405       .  A
C667        C668   1.405       .  A
C668        C669   1.402       .  A
C668        H679   1.084       .  S
C669        C670   1.405       .  A
C669        H680   1.084       .  S
C670        C671   1.410       .  A
C671        C672   1.411       .  A
C671        H681   1.084       .  S
C672        C673   1.408       .  A
C673        H682   1.084       .  S
C674        C675   1.404       .  A
C674        H683   1.084       .  S
C675        C676   1.410       .  A
C676        H684   1.085       .  S
C685        C686   1.399       .  A
C685        C690   1.403       .  A
C685        H701   1.084       .  S
C686        C687   1.403       .  A
C686        H702   1.083       .  S
C687        C697   1.407       .  A
C687        C688   1.413       .  A
C688        C694   1.411       .  A
C688        C689   1.417       .  A
C689        C691   1.414       .  A
C689        C690   1.410       .  A
C690        C698   1.402       .  A
C691        C700   1.413       .  A
C691        C692   1.405       .  A
C692        C693   1.404       .  A
C692        H703   1.083       .  S
C693        C694   1.406       .  A
C693        H704   1.083       .  S
C694        C695   1.411       .  A
C695        C696   1.411       .  A
C695        H705   1.084       .  S
C696        C697   1.406       .  A
C697        H706   1.084       .  S
C698        C699   1.407       .  A
C698        H707   1.085       .  S
C699        C700   1.408       .  A
C700        H708   1.084       .  S
C709        C710   1.400       .  A
C709        C714   1.403       .  A
C709        H725   1.084       .  S
C710        C711   1.404       .  A
C710        H726   1.083       .  S
C711        C721   1.406       .  A
C711        C712   1.413       .  A
C712        C718   1.411       .  A
C712        C713   1.413       .  A
C713        C715   1.413       .  A
C713        C714   1.412       .  A
C714        C722   1.404       .  A
C715        C724   1.405       .  A
C715        C716   1.403       .  A
C716        C717   1.400       .  A
C716        H727   1.084       .  S
C717        C718   1.405       .  A
C717        H728   1.084       .  S
C718        C719   1.404       .  A
C719        C720   1.407       .  A
C719        H729   1.085       .  S
C720        C721   1.405       .  A
C721        H730   1.084       .  S
C722        C723   1.404       .  A
C722        H731   1.085       .  S
C723        C724   1.405       .  A
C724        H732   1.085       .  S
C733        C734   1.402       .  A
C733        C738   1.404       .  A
C733        H749   1.083       .  S
C734        C735   1.405       .  A
C734        H750   1.084       .  S
C735        C745   1.407       .  A
C735        C736   1.410       .  A
C736        C742   1.413       .  A
C736        C737   1.419       .  A
C737        C739   1.410       .  A
C737        C738   1.414       .  A
C738        C746   1.411       .  A
C739        C748   1.409       .  A
C739        C740   1.406       .  A
C740        C741   1.402       .  A
C740        H751   1.083       .  S
C741        C742   1.404       .  A
C741        H752   1.084       .  S
C742        C743   1.411       .  A
C743        C744   1.410       .  A
C743        H753   1.084       .  S
C744        C745   1.414       .  A
C745        H754   1.084       .  S
C746        C747   1.407       .  A
C746        H755   1.084       .  S
C747        C748   1.411       .  A
C748        H756   1.085       .  S
C757        C758   1.401       .  A
C757        C762   1.405       .  A
C757        H773   1.084       .  S
C758        C759   1.404       .  A
C758        H774   1.083       .  S
C759        C769   1.407       .  A
C759        C760   1.414       .  A
C760        C766   1.410       .  A
C760        C761   1.414       .  A
C761        C763   1.414       .  A
C761        C762   1.409       .  A
C762        C770   1.404       .  A
C763        C772   1.408       .  A
C763        C764   1.404       .  A
C764        C765   1.399       .  A
C764        H775   1.083   1_556  S
C765        C766   1.403       .  A
C765        H776   1.084   1_556  S
C766        C767   1.401       .  A
C767        C768   1.407       .  A
C767        H777   1.084       .  S
C768        C769   1.407       .  A
C769        H778   1.084       .  S
C770        C771   1.411       .  A
C770        H779   1.085       .  S
C771        C772   1.406       .  A
C772        H780   1.084       .  S
C781        C782   1.401       .  A
C781        C786   1.404   1_554  A
C781        H797   1.084       .  S
C782        C783   1.405       .  A
C782        H798   1.084       .  S
C783        C793   1.406       .  A
C783        C784   1.411   1_554  A
C784        C790   1.414       .  A
C784        C785   1.419       .  A
C785        C787   1.412       .  A
C785        C786   1.413       .  A
C786        C794   1.409       .  A
C787        C796   1.410       .  A
C787        C788   1.405       .  A
C788        C789   1.403       .  A
C788        H799   1.084       .  S
C789        C790   1.405       .  A
C789        H800   1.083       .  S
C790        C791   1.413       .  A
C791        C792   1.408       .  A
C791        H801   1.084       .  S
C792        C793   1.409   1_556  A
C793        H802   1.085       .  S
C794        C795   1.407       .  A
C794        H803   1.084   1_556  S
C795        C796   1.409       .  A
C796        H804   1.084       .  S
C805        C806   1.399       .  A
C805        C810   1.403       .  A
C805        H821   1.084       .  S
C806        C807   1.404       .  A
C806        H822   1.083       .  S
C807        C817   1.406       .  A
C807        C808   1.414       .  A
C808        C814   1.410   1_556  A
C808        C809   1.412       .  A
C809        C811   1.414   1_556  A
C809        C810   1.411       .  A
C810        C818   1.401       .  A
C811        C820   1.404       .  A
C811        C812   1.403       .  A
C812        C813   1.399       .  A
C812        H823   1.084       .  S
C813        C814   1.404       .  A
C813        H824   1.084       .  S
C814        C815   1.402       .  A
C815        C816   1.408   1_554  A
C815        H825   1.085       .  S
C816        C817   1.404       .  A
C817        H826   1.084       .  S
C818        C819   1.403       .  A
C818        H827   1.085       .  S
C819        C820   1.403   1_556  A
C820        H828   1.085       .  S
C829        C830   1.397       .  A
C829        C834   1.402       .  A
C829        H845   1.084       .  S
C830        C831   1.404       .  A
C830        H846   1.083       .  S
C831        C841   1.396       .  A
C831        C832   1.409       .  A
C832        C838   1.412       .  A
C832        C833   1.405       .  A
C833        C835   1.408       .  A
C833        C834   1.411       .  A
C834        C842   1.401       .  A
C835        C844   1.400       .  A
C835        C836   1.403       .  A
C836        C837   1.399       .  A
C836        H847   1.084       .  S
C837        C838   1.404       .  A
C837        H848   1.084       .  S
C838        C839   1.402       .  A
C839        C840   1.407       .  A
C839        H849   1.084       .  S
C840        C841   1.408       .  A
C841        H850   1.084       .  S
C842        C843   1.412       .  A
C842        H851   1.081       .  S
C843        C844   1.414       .  A
C844        H852   1.081       .  S
C853        C854   1.393       .  A
C853        C858   1.402       .  A
C853        H869   1.084       .  S
C854        C855   1.400       .  A
C854        H870   1.084       .  S
C855        C865   1.394       .  A
C855        C856   1.413       .  A
C856        C862   1.410       .  A
C856        C857   1.406       .  A
C857        C859   1.413       .  A
C857        C858   1.408       .  A
C858        C866   1.391       .  A
C859        C868   1.403       .  A
C859        C860   1.403       .  A
C860        C861   1.399       .  A
C860        H871   1.084       .  S
C861        C862   1.404       .  A
C861        H872   1.084       .  S
C862        C863   1.399       .  A
C863        C864   1.406       .  A
C863        H873   1.085       .  S
C864        C865   1.400       .  A
C865        H874   1.085       .  S
C866        C867   1.408       .  A
C866        H875   1.084       .  S
C867        C868   1.407       .  A
C868        H876   1.084       .  S
C877        C878   1.399       .  A
C877        C882   1.404       .  A
C877        H893   1.084       .  S
C878        C879   1.403       .  A
C878        H894   1.084       .  S
C879        C889   1.404       .  A
C879        C880   1.414       .  A
C880        C886   1.410       .  A
C880        C881   1.408       .  A
C881        C883   1.412       .  A
C881        C882   1.411       .  A
C882        C890   1.401       .  A
C883        C892   1.399       .  A
C883        C884   1.403       .  A
C884        C885   1.396       .  A
C884        H895   1.084       .  S
C885        C886   1.402       .  A
C885        H896   1.084       .  S
C886        C887   1.395       .  A
C887        C888   1.403       .  A
C887        H897   1.085       .  S
C888        C889   1.403       .  A
C889        H898   1.084       .  S
C890        C891   1.406       .  A
C890        H899   1.084       .  S
C891        C892   1.405       .  A
C892        H900   1.084       .  S
C901        C902   1.392       .  A
C901        C906   1.401       .  A
C901        H917   1.084       .  S
C902        C903   1.400       .  A
C902        H918   1.083       .  S
C903        C913   1.390       .  A
C903        C904   1.410       .  A
C904        C910   1.414       .  A
C904        C905   1.405       .  A
C905        C907   1.411       .  A
C905        C906   1.412       .  A
C906        C914   1.392       .  A
C907        C916   1.401       .  A
C907        C908   1.404       .  A
C908        C909   1.400       .  A
C908        H919   1.084       .  S
C909        C910   1.404       .  A
C909        H920   1.083       .  S
C910        C911   1.404       .  A
C911        C912   1.402       .  A
C911        H921   1.084       .  S
C912        C913   1.399       .  A
C913        H922   1.086       .  S
C914        C915   1.400       .  A
C914        H923   1.085       .  S
C915        C916   1.405       .  A
C916        H924   1.084       .  S
C925        C926   1.401       .  A
C925        C930   1.404       .  A
C925        H941   1.084       .  S
C926        C927   1.405       .  A
C926        H942   1.084       .  S
C927        C937   1.405       .  A
C927        C928   1.409       .  A
C928        C934   1.414       .  A
C928        C929   1.419       .  A
C929        C931   1.410       .  A
C929        C930   1.413       .  A
C930        C938   1.410       .  A
C931        C940   1.410       .  A
C931        C932   1.406       .  A
C932        C933   1.404       .  A
C932        H943   1.084       .  S
C933        C934   1.405       .  A
C933        H944   1.083       .  S
C934        C935   1.414       .  A
C935        C936   1.409       .  A
C935        H945   1.084       .  S
C936        C937   1.412       .  A
C937        H946   1.084       .  S
C938        C939   1.409       .  A
C938        H947   1.084       .  S
C939        C940   1.412       .  A
C940        H948   1.084       .  S
C949        C950   1.399       .  A
C949        C954   1.403       .  A
C949        H965   1.084       .  S
C950        C951   1.404       .  A
C950        H966   1.084       .  S
C951        C961   1.402       .  A
C951        C952   1.410       .  A
C952        C958   1.413       .  A
C952        C953   1.415       .  A
C953        C955   1.411       .  A
C953        C954   1.414       .  A
C954        C962   1.405       .  A
C955        C964   1.406       .  A
C955        C956   1.405       .  A
C956        C957   1.401       .  A
C956        H967   1.084       .  S
C957        C958   1.404       .  A
C957        H968   1.084       .  S
C958        C959   1.408       .  A
C959        C960   1.409       .  A
C959        H969   1.084       .  S
C960        C961   1.411       .  A
C961        H970   1.084       .  S
C962        C963   1.402       .  A
C962        H971   1.084       .  S
C963        C964   1.408       .  A
C964        H972   1.085       .  S
C973        C974   1.397       .  A
C973        C978   1.402       .  A
C973        H989   1.084       .  S
C974        C975   1.403       .  A
C974        H990   1.083       .  S
C975        C985   1.403       .  A
C975        C976   1.412       .  A
C976        C982   1.412       .  A
C976        C977   1.416       .  A
C977        C979   1.414       .  A
C977        C978   1.411       .  A
C978        C986   1.400       .  A
C979        C988   1.412       .  A
C979        C980   1.405       .  A
C980        C981   1.404       .  A
C980        H991   1.084       .  S
C981        C982   1.407       .  A
C981        H992   1.083       .  S
C982        C983   1.411       .  A
C983        C984   1.410       .  A
C983        H993   1.084       .  S
C984        C985   1.405       .  A
C985        H994   1.085       .  S
C986        C987   1.403       .  A
C986        H995   1.085       .  S
C987        C988   1.408       .  A
C988        H996   1.085       .  S
C997        C998   1.399       .  A
C997       C1002   1.403       .  A
C997       H1013   1.084       .  S
C998        C999   1.404       .  A
C998       H1014   1.084       .  S
C999       C1009   1.402       .  A
C999       C1000   1.410       .  A
C1000      C1006   1.413       .  A
C1000      C1001   1.416       .  A
C1001      C1003   1.412       .  A
C1001      C1002   1.412       .  A
C1002      C1010   1.404       .  A
C1003      C1012   1.410       .  A
C1003      C1004   1.406       .  A
C1004      C1005   1.403       .  A
C1004      H1015   1.083       .  S
C1005      C1006   1.405       .  A
C1005      H1016   1.083       .  S
C1006      C1007   1.411       .  A
C1007      C1008   1.408       .  A
C1007      H1017   1.084       .  S
C1008      C1009   1.410       .  A
C1009      H1018   1.085       .  S
C1010      C1011   1.404       .  A
C1010      H1019   1.085       .  S
C1011      C1012   1.409       .  A
C1012      H1020   1.084       .  S
C1021      C1022   1.401       .  A
C1021      C1026   1.404       .  A
C1021      H1037   1.084       .  S
C1022      C1023   1.404       .  A
C1022      H1038   1.084       .  S
C1023      C1033   1.408       .  A
C1023      C1024   1.412       .  A
C1024      C1030   1.412       .  A
C1024      C1025   1.420       .  A
C1025      C1027   1.413       .  A
C1025      C1026   1.411       .  A
C1026      C1034   1.406       .  A
C1027      C1036   1.413       .  A
C1027      C1028   1.405       .  A
C1028      C1029   1.404       .  A
C1028      H1039   1.083   1_556  S
C1029      C1030   1.406       .  A
C1029      H1040   1.083   1_556  S
C1030      C1031   1.413       .  A
C1031      C1032   1.412       .  A
C1031      H1041   1.084       .  S
C1032      C1033   1.410       .  A
C1033      H1042   1.084       .  S
C1034      C1035   1.409       .  A
C1034      H1043   1.085       .  S
C1035      C1036   1.409       .  A
C1036      H1044   1.084       .  S
C1045      C1046   1.402       .  A
C1045      C1050   1.405       .  A
C1045      H1061   1.084       .  S
C1046      C1047   1.405       .  A
C1046      H1062   1.083       .  S
C1047      C1057   1.411       .  A
C1047      C1048   1.414   1_554  A
C1048      C1054   1.411       .  A
C1048      C1049   1.418       .  A
C1049      C1051   1.413       .  A
C1049      C1050   1.410   1_556  A
C1050      C1058   1.407       .  A
C1051      C1060   1.410       .  A
C1051      C1052   1.405       .  A
C1052      C1053   1.402       .  A
C1052      H1063   1.083       .  S
C1053      C1054   1.405       .  A
C1053      H1064   1.084       .  S
C1054      C1055   1.407       .  A
C1055      C1056   1.407       .  A
C1055      H1065   1.085       .  S
C1056      C1057   1.407   1_556  A
C1057      H1066   1.084       .  S
C1058      C1059   1.410   1_554  A
C1058      H1067   1.085       .  S
C1059      C1060   1.408       .  A
C1060      H1068   1.084       .  S
C1069      C1070   1.402       .  A
C1069      C1074   1.404       .  A
C1069      H1085   1.083       .  S
C1070      C1071   1.406       .  A
C1070      H1086   1.084       .  S
C1071      C1081   1.409       .  A
C1071      C1072   1.409       .  A
C1072      C1078   1.414       .  A
C1072      C1073   1.422       .  A
C1073      C1075   1.410       .  A
C1073      C1074   1.414       .  A
C1074      C1082   1.413       .  A
C1075      C1084   1.411       .  A
C1075      C1076   1.406       .  A
C1076      C1077   1.405       .  A
C1076      H1087   1.084       .  S
C1077      C1078   1.406       .  A
C1077      H1088   1.083       .  S
C1078      C1079   1.417       .  A
C1079      C1080   1.413       .  A
C1079      H1089   1.084       .  S
C1080      C1081   1.416       .  A
C1081      H1090   1.084       .  S
C1082      C1083   1.407       .  A
C1082      H1091   1.084       .  S
C1083      C1084   1.412       .  A
C1084      H1092   1.085       .  S
C1093      C1094   1.405       .  A
C1093      C1098   1.406   1_554  A
C1093      H1109   1.083       .  S
C1094      C1095   1.406   1_554  A
C1094      H1110   1.083       .  S
C1095      C1105   1.411       .  A
C1095      C1096   1.411       .  A
C1096      C1102   1.412       .  A
C1096      C1097   1.415       .  A
C1097      C1099   1.410       .  A
C1097      C1098   1.413       .  A
C1098      C1106   1.412       .  A
C1099      C1108   1.400       .  A
C1099      C1100   1.403       .  A
C1100      C1101   1.397       .  A
C1100      H1111   1.084       .  S
C1101      C1102   1.402       .  A
C1101      H1112   1.083       .  S
C1102      C1103   1.403       .  A
C1103      C1104   1.403       .  A
C1103      H1113   1.082       .  S
C1104      C1105   1.411       .  A
C1105      H1114   1.084   1_556  S
C1106      C1107   1.409       .  A
C1106      H1115   1.084   1_556  S
C1107      C1108   1.408       .  A
C1108      H1116   1.085       .  S
C1117      C1118   1.396       .  A
C1117      C1122   1.402       .  A
C1117      H1133   1.084       .  S
C1118      C1119   1.403       .  A
C1118      H1134   1.084       .  S
C1119      C1129   1.394       .  A
C1119      C1120   1.408       .  A
C1120      C1126   1.414       .  A
C1120      C1121   1.408       .  A
C1121      C1123   1.408       .  A
C1121      C1122   1.412       .  A
C1122      C1130   1.399       .  A
C1123      C1132   1.398       .  A
C1123      C1124   1.404       .  A
C1124      C1125   1.398       .  A
C1124      H1135   1.084       .  S
C1125      C1126   1.402       .  A
C1125      H1136   1.084       .  S
C1126      C1127   1.403       .  A
C1127      C1128   1.402       .  A
C1127      H1137   1.084       .  S
C1128      C1129   1.408       .  A
C1129      H1138   1.083       .  S
C1130      C1131   1.406       .  A
C1130      H1139   1.083       .  S
C1131      C1132   1.413       .  A
C1132      H1140   1.083       .  S
C1141      C1142   1.400       .  A
C1141      C1146   1.403       .  A
C1141      H1157   1.083       .  S
C1142      C1143   1.405       .  A
C1142      H1158   1.083       .  S
C1143      C1153   1.402       .  A
C1143      C1144   1.411       .  A
C1144      C1150   1.408       .  A
C1144      C1145   1.404       .  A
C1145      C1147   1.410       .  A
C1145      C1146   1.409       .  A
C1146      C1154   1.403       .  A
C1147      C1156   1.400       .  A
C1147      C1148   1.402       .  A
C1148      C1149   1.397       .  A
C1148      H1159   1.084       .  S
C1149      C1150   1.404       .  A
C1149      H1160   1.084       .  S
C1150      C1151   1.395       .  A
C1151      C1152   1.409       .  A
C1151      H1161   1.084       .  S
C1152      C1153   1.409       .  A
C1153      H1162   1.084       .  S
C1154      C1155   1.413       .  A
C1154      H1163   1.082       .  S
C1155      C1156   1.412       .  A
C1156      H1164   1.081       .  S
C1165      C1166   1.391       .  A
C1165      C1170   1.401       .  A
C1165      H1181   1.084       .  S
C1166      C1167   1.401       .  A
C1166      H1182   1.084       .  S
C1167      C1177   1.389       .  A
C1167      C1168   1.409       .  A
C1168      C1174   1.414       .  A
C1168      C1169   1.407       .  A
C1169      C1171   1.411       .  A
C1169      C1170   1.411       .  A
C1170      C1178   1.391       .  A
C1171      C1180   1.406       .  A
C1171      C1172   1.405       .  A
C1172      C1173   1.402       .  A
C1172      H1183   1.083       .  S
C1173      C1174   1.404       .  A
C1173      H1184   1.083       .  S
C1174      C1175   1.408       .  A
C1175      C1176   1.405       .  A
C1175      H1185   1.084       .  S
C1176      C1177   1.404       .  A
C1177      H1186   1.086       .  S
C1178      C1179   1.404       .  A
C1178      H1187   1.084       .  S
C1179      C1180   1.409       .  A
C1180      H1188   1.084       .  S
C1189      C1190   1.398       .  A
C1189      C1194   1.403       .  A
C1189      H1205   1.084       .  S
C1190      C1191   1.403       .  A
C1190      H1206   1.084       .  S
C1191      C1201   1.402       .  A
C1191      C1192   1.412       .  A
C1192      C1198   1.411       .  A
C1192      C1193   1.411       .  A
C1193      C1195   1.411       .  A
C1193      C1194   1.411       .  A
C1194      C1202   1.402       .  A
C1195      C1204   1.402       .  A
C1195      C1196   1.403       .  A
C1196      C1197   1.398       .  A
C1196      H1207   1.084       .  S
C1197      C1198   1.403       .  A
C1197      H1208   1.084       .  S
C1198      C1199   1.401       .  A
C1199      C1200   1.407       .  A
C1199      H1209   1.084       .  S
C1200      C1201   1.406       .  A
C1201      H1210   1.084       .  S
C1202      C1203   1.408       .  A
C1202      H1211   1.084       .  S
C1203      C1204   1.408       .  A
C1204      H1212   1.084       .  S
C1213      C1214   1.400       .  A
C1213      C1218   1.404       .  A
C1213      H1229   1.084       .  S
C1214      C1215   1.404       .  A
C1214      H1230   1.084       .  S
C1215      C1225   1.401       .  A
C1215      C1216   1.410       .  A
C1216      C1222   1.414       .  A
C1216      C1217   1.412       .  A
C1217      C1219   1.411       .  A
C1217      C1218   1.414       .  A
C1218      C1226   1.406       .  A
C1219      C1228   1.399       .  A
C1219      C1220   1.403   1_565  A
C1220      C1221   1.399       .  A
C1220      H1231   1.084       .  S
C1221      C1222   1.403   1_545  A
C1221      H1232   1.083       .  S
C1222      C1223   1.406       .  A
C1223      C1224   1.403       .  A
C1223      H1233   1.084   1_565  S
C1224      C1225   1.406       .  A
C1225      H1234   1.085       .  S
C1226      C1227   1.405       .  A
C1226      H1235   1.085       .  S
C1227      C1228   1.403       .  A
C1228      H1236   1.085   1_565  S
C1237      C1238   1.402       .  A
C1237      C1242   1.406       .  A
C1237      H1253   1.084       .  S
C1238      C1239   1.404       .  A
C1238      H1254   1.083       .  S
C1239      C1249   1.413       .  A
C1239      C1240   1.414       .  A
C1240      C1246   1.410       .  A
C1240      C1241   1.421       .  A
C1241      C1243   1.414       .  A
C1241      C1242   1.408       .  A
C1242      C1250   1.407       .  A
C1243      C1252   1.417       .  A
C1243      C1244   1.405       .  A
C1244      C1245   1.404       .  A
C1244      H1255   1.083       .  S
C1245      C1246   1.406       .  A
C1245      H1256   1.083       .  S
C1246      C1247   1.411       .  A
C1247      C1248   1.411       .  A
C1247      H1257   1.084       .  S
C1248      C1249   1.408       .  A
C1249      H1258   1.084       .  S
C1250      C1251   1.416       .  A
C1250      H1259   1.084       .  S
C1251      C1252   1.412       .  A
C1252      H1260   1.084       .  S
C1261      C1262   1.400       .  A
C1261      C1266   1.403       .  A
C1261      H1277   1.082       .  S
C1262      C1263   1.405       .  A
C1262      H1278   1.084       .  S
C1263      C1273   1.405       .  A
C1263      C1264   1.409       .  A
C1264      C1270   1.413       .  A
C1264      C1265   1.418       .  A
C1265      C1267   1.411       .  A
C1265      C1266   1.413       .  A
C1266      C1274   1.408       .  A
C1267      C1276   1.410       .  A
C1267      C1268   1.406       .  A
C1268      C1269   1.404       .  A
C1268      H1279   1.083   1_565  S
C1269      C1270   1.405       .  A
C1269      H1280   1.083   1_565  S
C1270      C1271   1.414       .  A
C1271      C1272   1.410       .  A
C1271      H1281   1.084       .  S
C1272      C1273   1.411       .  A
C1273      H1282   1.085       .  S
C1274      C1275   1.406       .  A
C1274      H1283   1.083       .  S
C1275      C1276   1.411       .  A
C1276      H1284   1.084       .  S
C1285      C1286   1.398       .  A
C1285      C1290   1.402       .  A
C1285      H1301   1.084       .  S
C1286      C1287   1.403       .  A
C1286      H1302   1.083       .  S
C1287      C1297   1.402       .  A
C1287      C1288   1.411       .  A
C1288      C1294   1.413       .  A
C1288      C1289   1.415       .  A
C1289      C1291   1.412       .  A
C1289      C1290   1.413       .  A
C1290      C1298   1.403       .  A
C1291      C1300   1.410       .  A
C1291      C1292   1.406       .  A
C1292      C1293   1.404       .  A
C1292      H1303   1.084       .  S
C1293      C1294   1.405       .  A
C1293      H1304   1.083       .  S
C1294      C1295   1.411       .  A
C1295      C1296   1.408       .  A
C1295      H1305   1.084       .  S
C1296      C1297   1.407       .  A
C1297      H1306   1.085       .  S
C1298      C1299   1.402       .  A
C1298      H1307   1.084       .  S
C1299      C1300   1.409       .  A
C1300      H1308   1.084       .  S
C1309      C1310   1.396       .  A
C1309      C1314   1.402       .  A
C1309      H1325   1.084       .  S
C1310      C1311   1.403       .  A
C1310      H1326   1.084       .  S
C1311      C1321   1.398       .  A
C1311      C1312   1.409       .  A
C1312      C1318   1.415       .  A
C1312      C1313   1.417       .  A
C1313      C1315   1.410       .  A
C1313      C1314   1.412       .  A
C1314      C1322   1.403       .  A
C1315      C1324   1.413       .  A
C1315      C1316   1.408       .  A
C1316      C1317   1.407       .  A
C1316      H1327   1.083       .  S
C1317      C1318   1.406       .  A
C1317      H1328   1.083       .  S
C1318      C1319   1.418       .  A
C1319      C1320   1.410       .  A
C1319      H1329   1.084       .  S
C1320      C1321   1.408       .  A
C1321      H1330   1.085       .  S
C1322      C1323   1.406       .  A
C1322      H1331   1.084       .  S
C1323      C1324   1.416       .  A
C1324      H1332   1.084       .  S
C1333      C1334   1.403       .  A
C1333      C1338   1.405       .  A
C1333      H1349   1.084       .  S
C1334      C1335   1.405       .  A
C1334      H1350   1.084       .  S
C1335      C1345   1.408       .  A
C1335      C1336   1.412       .  A
C1336      C1342   1.413       .  A
C1336      C1337   1.416       .  A
C1337      C1339   1.411       .  A
C1337      C1338   1.412       .  A
C1338      C1346   1.409       .  A
C1339      C1348   1.406       .  A
C1339      C1340   1.405       .  A
C1340      C1341   1.400       .  A
C1340      H1351   1.083       .  S
C1341      C1342   1.403       .  A
C1341      H1352   1.084       .  S
C1342      C1343   1.406       .  A
C1343      C1344   1.404       .  A
C1343      H1353   1.084       .  S
C1344      C1345   1.410       .  A
C1345      H1354   1.085       .  S
C1346      C1347   1.409       .  A
C1346      H1355   1.084       .  S
C1347      C1348   1.409       .  A
C1348      H1356   1.085       .  S
C1357      C1358   1.402       .  A
C1357      C1362   1.404       .  A
C1357      H1373   1.084       .  S
C1358      C1359   1.406       .  A
C1358      H1374   1.084       .  S
C1359      C1369   1.406       .  A
C1359      C1360   1.408       .  A
C1360      C1366   1.414       .  A
C1360      C1361   1.417       .  A
C1361      C1363   1.409       .  A
C1361      C1362   1.415       .  A
C1362      C1370   1.411       .  A
C1363      C1372   1.403       .  A
C1363      C1364   1.404       .  A
C1364      C1365   1.401       .  A
C1364      H1375   1.084       .  S
C1365      C1366   1.404       .  A
C1365      H1376   1.083       .  S
C1366      C1367   1.411       .  A
C1367      C1368   1.408       .  A
C1367      H1377   1.084       .  S
C1368      C1369   1.415       .  A
C1369      H1378   1.084       .  S
C1370      C1371   1.405       .  A
C1370      H1379   1.084       .  S
C1371      C1372   1.407       .  A
C1372      H1380   1.085       .  S
C1381      C1382   1.399       .  A
C1381      C1386   1.404       .  A
C1381      H1397   1.084       .  S
C1382      C1383   1.404       .  A
C1382      H1398   1.084       .  S
C1383      C1393   1.404       .  A
C1383      C1384   1.412       .  A
C1384      C1390   1.412   1_565  A
C1384      C1385   1.411       .  A
C1385      C1387   1.412   1_565  A
C1385      C1386   1.411       .  A
C1386      C1394   1.402       .  A
C1387      C1396   1.402       .  A
C1387      C1388   1.403       .  A
C1388      C1389   1.398       .  A
C1388      H1399   1.083       .  S
C1389      C1390   1.403       .  A
C1389      H1400   1.084       .  S
C1390      C1391   1.402       .  A
C1391      C1392   1.404   1_545  A
C1391      H1401   1.084       .  S
C1392      C1393   1.408       .  A
C1393      H1402   1.085       .  S
C1394      C1395   1.408       .  A
C1394      H1403   1.084       .  S
C1395      C1396   1.406   1_565  A
C1396      H1404   1.084       .  S
C1405      C1406   1.399       .  A
C1405      C1410   1.404       .  A
C1405      H1421   1.084       .  S
C1406      C1407   1.403       .  A
C1406      H1422   1.083       .  S
C1407      C1417   1.402       .  A
C1407      C1408   1.409       .  A
C1408      C1414   1.408       .  A
C1408      C1409   1.405       .  A
C1409      C1411   1.411       .  A
C1409      C1410   1.409       .  A
C1410      C1418   1.398       .  A
C1411      C1420   1.399       .  A
C1411      C1412   1.403       .  A
C1412      C1413   1.398       .  A
C1412      H1423   1.084       .  S
C1413      C1414   1.403       .  A
C1413      H1424   1.084       .  S
C1414      C1415   1.399       .  A
C1415      C1416   1.413       .  A
C1415      H1425   1.080       .  S
C1416      C1417   1.414       .  A
C1417      H1426   1.081       .  S
C1418      C1419   1.409       .  A
C1418      H1427   1.084       .  S
C1419      C1420   1.407       .  A
C1420      H1428   1.084       .  S
C1429      C1430   1.395       .  A
C1429      C1434   1.401       .  A
C1429      H1445   1.084       .  S
C1430      C1431   1.402       .  A
C1430      H1446   1.083       .  S
C1431      C1441   1.392       .  A
C1431      C1432   1.409       .  A
C1432      C1438   1.414   1_545  A
C1432      C1433   1.405   1_545  A
C1433      C1435   1.408       .  A
C1433      C1434   1.414   1_565  A
C1434      C1442   1.398   1_545  A
C1435      C1444   1.394       .  A
C1435      C1436   1.404       .  A
C1436      C1437   1.397       .  A
C1436      H1447   1.084       .  S
C1437      C1438   1.402       .  A
C1437      H1448   1.084       .  S
C1438      C1439   1.400       .  A
C1439      C1440   1.402   1_565  A
C1439      H1449   1.085       .  S
C1440      C1441   1.403       .  A
C1441      H1450   1.083       .  S
C1442      C1443   1.402       .  A
C1442      H1451   1.084   1_565  S
C1443      C1444   1.410       .  A
C1444      H1452   1.084       .  S
C1453      C1454   1.398       .  A
C1453      C1458   1.404       .  A
C1453      H1469   1.084       .  S
C1454      C1455   1.403       .  A
C1454      H1470   1.084       .  S
C1455      C1465   1.401       .  A
C1455      C1456   1.410       .  A
C1456      C1462   1.413       .  A
C1456      C1457   1.416       .  A
C1457      C1459   1.412       .  A
C1457      C1458   1.411       .  A
C1458      C1466   1.404       .  A
C1459      C1468   1.411       .  A
C1459      C1460   1.406       .  A
C1460      C1461   1.403       .  A
C1460      H1471   1.083       .  S
C1461      C1462   1.405       .  A
C1461      H1472   1.083       .  S
C1462      C1463   1.411       .  A
C1463      C1464   1.407       .  A
C1463      H1473   1.084       .  S
C1464      C1465   1.408       .  A
C1465      H1474   1.085       .  S
C1466      C1467   1.409       .  A
C1466      H1475   1.084       .  S
C1467      C1468   1.411       .  A
C1468      H1476   1.084       .  S
C1477      C1478   1.396       .  A
C1477      C1482   1.403       .  A
C1477      H1493   1.084       .  S
C1478      C1479   1.402       .  A
C1478      H1494   1.084       .  S
C1479      C1489   1.398       .  A
C1479      C1480   1.414   1_565  A
C1480      C1486   1.411       .  A
C1480      C1481   1.406       .  A
C1481      C1483   1.414       .  A
C1481      C1482   1.409   1_545  A
C1482      C1490   1.394       .  A
C1483      C1492   1.401       .  A
C1483      C1484   1.402       .  A
C1484      C1485   1.397       .  A
C1484      H1495   1.084       .  S
C1485      C1486   1.403       .  A
C1485      H1496   1.084       .  S
C1486      C1487   1.397       .  A
C1487      C1488   1.402       .  A
C1487      H1497   1.085       .  S
C1488      C1489   1.400   1_545  A
C1489      H1498   1.085       .  S
C1490      C1491   1.406   1_565  A
C1490      H1499   1.085       .  S
C1491      C1492   1.401       .  A
C1492      H1500   1.084       .  S
C1501      C1502   1.405       .  A
C1501      C1506   1.406       .  A
C1501      H1517   1.083       .  S
C1502      C1503   1.405       .  A
C1502      H1518   1.083       .  S
C1503      C1513   1.415       .  A
C1503      C1504   1.413       .  A
C1504      C1510   1.410       .  A
C1504      C1505   1.419       .  A
C1505      C1507   1.411       .  A
C1505      C1506   1.412       .  A
C1506      C1514   1.414       .  A
C1507      C1516   1.405       .  A
C1507      C1508   1.404       .  A
C1508      C1509   1.399       .  A
C1508      H1519   1.084       .  S
C1509      C1510   1.404       .  A
C1509      H1520   1.084       .  S
C1510      C1511   1.403       .  A
C1511      C1512   1.412       .  A
C1511      H1521   1.084       .  S
C1512      C1513   1.409       .  A
C1513      H1522   1.084       .  S
C1514      C1515   1.413       .  A
C1514      H1523   1.084       .  S
C1515      C1516   1.411       .  A
C1516      H1524   1.084       .  S
C1525      C1526   1.398       .  A
C1525      C1530   1.404       .  A
C1525      H1541   1.084       .  S
C1526      C1527   1.403       .  A
C1526      H1542   1.083       .  S
C1527      C1537   1.408       .  A
C1527      C1528   1.415       .  A
C1528      C1534   1.410       .  A
C1528      C1529   1.419       .  A
C1529      C1531   1.415       .  A
C1529      C1530   1.407       .  A
C1530      C1538   1.400       .  A
C1531      C1540   1.418       .  A
C1531      C1532   1.406       .  A
C1532      C1533   1.405       .  A
C1532      H1543   1.083       .  S
C1533      C1534   1.407       .  A
C1533      H1544   1.084       .  S
C1534      C1535   1.410       .  A
C1535      C1536   1.411       .  A
C1535      H1545   1.084       .  S
C1536      C1537   1.405       .  A
C1537      H1546   1.084       .  S
C1538      C1539   1.412       .  A
C1538      H1547   1.084       .  S
C1539      C1540   1.414       .  A
C1540      H1548   1.084       .  S
C1549      C1550   1.401       .  A
C1549      C1554   1.404       .  A
C1549      H1565   1.084       .  S
C1550      C1551   1.405       .  A
C1550      H1566   1.083       .  S
C1551      C1561   1.409       .  A
C1551      C1552   1.412       .  A
C1552      C1558   1.412       .  A
C1552      C1553   1.420       .  A
C1553      C1555   1.413       .  A
C1553      C1554   1.412       .  A
C1554      C1562   1.408       .  A
C1555      C1564   1.412       .  A
C1555      C1556   1.405       .  A
C1556      C1557   1.404       .  A
C1556      H1567   1.084       .  S
C1557      C1558   1.406       .  A
C1557      H1568   1.083       .  S
C1558      C1559   1.412       .  A
C1559      C1560   1.412       .  A
C1559      H1569   1.084       .  S
C1560      C1561   1.409       .  A
C1561      H1570   1.085       .  S
C1562      C1563   1.406       .  A
C1562      H1571   1.085       .  S
C1563      C1564   1.409       .  A
C1564      H1572   1.084       .  S
C1573      C1574   1.399       .  A
C1573      C1578   1.404       .  A
C1573      H1589   1.084       .  S
C1574      C1575   1.403       .  A
C1574      H1590   1.083       .  S
C1575      C1585   1.405       .  A
C1575      C1576   1.413       .  A
C1576      C1582   1.411       .  A
C1576      C1577   1.414       .  A
C1577      C1579   1.414       .  A
C1577      C1578   1.409       .  A
C1578      C1586   1.400       .  A
C1579      C1588   1.410       .  A
C1579      C1580   1.404       .  A
C1580      C1581   1.401       .  A
C1580      H1591   1.083       .  S
C1581      C1582   1.404       .  A
C1581      H1592   1.083       .  S
C1582      C1583   1.405       .  A
C1583      C1584   1.407       .  A
C1583      H1593   1.084       .  S
C1584      C1585   1.407       .  A
C1585      H1594   1.083       .  S
C1586      C1587   1.409       .  A
C1586      H1595   1.085       .  S
C1587      C1588   1.405       .  A
C1588      H1596   1.084       .  S
C1597      C1598   1.405       .  A
C1597      C1602   1.406       .  A
C1597      H1613   1.083       .  S
C1598      C1599   1.406       .  A
C1598      H1614   1.083       .  S
C1599      C1609   1.416       .  A
C1599      C1600   1.414       .  A
C1600      C1606   1.408       .  A
C1600      C1601   1.421       .  A
C1601      C1603   1.414       .  A
C1601      C1602   1.410       .  A
C1602      C1610   1.412       .  A
C1603      C1612   1.411       .  A
C1603      C1604   1.404       .  A
C1604      C1605   1.401       .  A
C1604      H1615   1.083       .  S
C1605      C1606   1.405       .  A
C1605      H1616   1.084       .  S
C1606      C1607   1.406       .  A
C1607      C1608   1.415       .  A
C1607      H1617   1.084       .  S
C1608      C1609   1.412       .  A
C1609      H1618   1.084       .  S
C1610      C1611   1.411       .  A
C1610      H1619   1.084       .  S
C1611      C1612   1.407       .  A
C1612      H1620   1.084       .  S
C1621      C1622   1.404       .  A
C1621      C1626   1.406       .  A
C1621      H1637   1.083       .  S
C1622      C1623   1.405       .  A
C1622      H1638   1.083       .  S
C1623      C1633   1.414       .  A
C1623      C1624   1.414       .  A
C1624      C1630   1.410       .  A
C1624      C1625   1.420       .  A
C1625      C1627   1.413       .  A
C1625      C1626   1.411       .  A
C1626      C1634   1.411       .  A
C1627      C1636   1.410       .  A
C1627      C1628   1.404       .  A
C1628      C1629   1.402       .  A
C1628      H1639   1.084       .  S
C1629      C1630   1.405       .  A
C1629      H1640   1.084       .  S
C1630      C1631   1.407       .  A
C1631      C1632   1.411       .  A
C1631      H1641   1.085       .  S
C1632      C1633   1.409       .  A
C1633      H1642   1.084       .  S
C1634      C1635   1.411       .  A
C1634      H1643   1.084       .  S
C1635      C1636   1.409       .  A
C1636      H1644   1.084       .  S
C1645      C1646   1.398       .  A
C1645      C1650   1.403       .  A
C1645      H1661   1.084       .  S
C1646      C1647   1.403       .  A
C1646      H1662   1.082       .  S
C1647      C1657   1.404       .  A
C1647      C1648   1.413       .  A
C1648      C1654   1.411       .  A
C1648      C1649   1.414       .  A
C1649      C1651   1.414       .  A
C1649      C1650   1.410       .  A
C1650      C1658   1.400       .  A
C1651      C1660   1.410       .  A
C1651      C1652   1.404       .  A
C1652      C1653   1.402   1_565  A
C1652      H1663   1.083   1_565  S
C1653      C1654   1.405   1_545  A
C1653      H1664   1.083       .  S
C1654      C1655   1.407       .  A
C1655      C1656   1.409       .  A
C1655      H1665   1.084       .  S
C1656      C1657   1.405       .  A
C1657      H1666   1.083       .  S
C1658      C1659   1.406       .  A
C1658      H1667   1.085       .  S
C1659      C1660   1.405       .  A
C1660      H1668   1.084       .  S
C1669      C1670   1.399       .  A
C1669      C1674   1.403       .  A
C1669      H1685   1.084       .  S
C1670      C1671   1.405       .  A
C1670      H1686   1.084       .  S
C1671      C1681   1.401       .  A
C1671      C1672   1.410       .  A
C1672      C1678   1.413       .  A
C1672      C1673   1.410       .  A
C1673      C1675   1.411       .  A
C1673      C1674   1.414       .  A
C1674      C1682   1.402       .  A
C1675      C1684   1.399       .  A
C1675      C1676   1.403   1_565  A
C1676      C1677   1.398       .  A
C1676      H1687   1.084       .  S
C1677      C1678   1.403   1_545  A
C1677      H1688   1.083       .  S
C1678      C1679   1.405       .  A
C1679      C1680   1.404       .  A
C1679      H1689   1.084   1_565  S
C1680      C1681   1.408       .  A
C1681      H1690   1.085       .  S
C1682      C1683   1.403       .  A
C1682      H1691   1.085       .  S
C1683      C1684   1.403       .  A
C1684      H1692   1.085   1_565  S
C1693      C1694   1.394       .  A
C1693      C1698   1.400       .  A
C1693      H1709   1.084       .  S
C1694      C1695   1.402       .  A
C1694      H1710   1.082       .  S
C1695      C1705   1.390       .  A
C1695      C1696   1.407       .  A
C1696      C1702   1.416       .  A
C1696      C1697   1.405       .  A
C1697      C1699   1.407       .  A
C1697      C1698   1.415       .  A
C1698      C1706   1.398       .  A
C1699      C1708   1.393       .  A
C1699      C1700   1.404       .  A
C1700      C1701   1.397       .  A
C1700      H1711   1.084       .  S
C1701      C1702   1.402       .  A
C1701      H1712   1.084       .  S
C1702      C1703   1.404       .  A
C1703      C1704   1.402       .  A
C1703      H1713   1.084       .  S
C1704      C1705   1.404       .  A
C1705      H1714   1.084       .  S
C1706      C1707   1.401       .  A
C1706      H1715   1.084       .  S
C1707      C1708   1.411       .  A
C1708      H1716   1.084       .  S
C1717      C1718   1.399       .  A
C1717      C1722   1.403       .  A
C1717      H1733   1.084       .  S
C1718      C1719   1.405       .  A
C1718      H1734   1.083       .  S
C1719      C1729   1.401       .  A
C1719      C1720   1.410       .  A
C1720      C1726   1.411       .  A
C1720      C1721   1.406       .  A
C1721      C1723   1.410       .  A
C1721      C1722   1.410       .  A
C1722      C1730   1.403       .  A
C1723      C1732   1.401       .  A
C1723      C1724   1.403       .  A
C1724      C1725   1.399       .  A
C1724      H1735   1.084       .  S
C1725      C1726   1.405       .  A
C1725      H1736   1.084       .  S
C1726      C1727   1.401       .  A
C1727      C1728   1.409       .  A
C1727      H1737   1.084       .  S
C1728      C1729   1.409       .  A
C1729      H1738   1.084       .  S
C1730      C1731   1.412       .  A
C1730      H1739   1.083       .  S
C1731      C1732   1.414       .  A
C1732      H1740   1.081       .  S
C1741      C1742   1.397       .  A
C1741      C1746   1.402       .  A
C1741      H1757   1.084       .  S
C1742      C1743   1.404       .  A
C1742      H1758   1.084       .  S
C1743      C1753   1.398       .  A
C1743      C1744   1.409       .  A
C1744      C1750   1.413       .  A
C1744      C1745   1.408       .  A
C1745      C1747   1.410       .  A
C1745      C1746   1.413       .  A
C1746      C1754   1.401       .  A
C1747      C1756   1.397       .  A
C1747      C1748   1.403       .  A
C1748      C1749   1.397       .  A
C1748      H1759   1.084       .  S
C1749      C1750   1.402       .  A
C1749      H1760   1.084       .  S
C1750      C1751   1.400       .  A
C1751      C1752   1.405       .  A
C1751      H1761   1.084       .  S
C1752      C1753   1.410       .  A
C1753      H1762   1.084       .  S
C1754      C1755   1.403       .  A
C1754      H1763   1.084       .  S
C1755      C1756   1.406       .  A
C1756      H1764   1.085       .  S
C1765      C1766   1.400       .  A
C1765      C1770   1.404       .  A
C1765      H1781   1.084       .  S
C1766      C1767   1.405       .  A
C1766      H1782   1.084       .  S
C1767      C1777   1.400       .  A
C1767      C1768   1.409       .  A
C1768      C1774   1.411       .  A
C1768      C1769   1.406       .  A
C1769      C1771   1.408       .  A
C1769      C1770   1.414       .  A
C1770      C1778   1.405       .  A
C1771      C1780   1.388       .  A
C1771      C1772   1.401       .  A
C1772      C1773   1.392       .  A
C1772      H1783   1.084       .  S
C1773      C1774   1.401       .  A
C1773      H1784   1.084       .  S
C1774      C1775   1.394       .  A
C1775      C1776   1.405       .  A
C1775      H1785   1.083       .  S
C1776      C1777   1.410       .  A
C1777      H1786   1.083       .  S
C1778      C1779   1.406       .  A
C1778      H1787   1.084       .  S
C1779      C1780   1.404       .  A
C1780      H1788   1.085       .  S
C1789      C1790   1.398       .  A
C1789      C1794   1.403       .  A
C1789      H1805   1.083       .  S
C1790      C1791   1.403       .  A
C1790      H1806   1.084       .  S
C1791      C1801   1.404       .  A
C1791      C1792   1.411       .  A
C1792      C1798   1.413       .  A
C1792      C1793   1.418       .  A
C1793      C1795   1.412       .  A
C1793      C1794   1.411       .  A
C1794      C1802   1.404       .  A
C1795      C1804   1.413       .  A
C1795      C1796   1.406       .  A
C1796      C1797   1.405       .  A
C1796      H1807   1.083       .  S
C1797      C1798   1.406       .  A
C1797      H1808   1.083       .  S
C1798      C1799   1.413       .  A
C1799      C1800   1.409       .  A
C1799      H1809   1.084       .  S
C1800      C1801   1.409       .  A
C1801      H1810   1.085       .  S
C1802      C1803   1.409       .  A
C1802      H1811   1.084       .  S
C1803      C1804   1.413       .  A
C1804      H1812   1.084       .  S
C1813      C1814   1.400       .  A
C1813      C1818   1.403       .  A
C1813      H1829   1.083       .  S
C1814      C1815   1.405       .  A
C1814      H1830   1.083       .  S
C1815      C1825   1.405       .  A
C1815      C1816   1.410       .  A
C1816      C1822   1.413       .  A
C1816      C1817   1.418       .  A
C1817      C1819   1.410       .  A
C1817      C1818   1.413       .  A
C1818      C1826   1.407       .  A
C1819      C1828   1.411       .  A
C1819      C1820   1.407       .  A
C1820      C1821   1.404       .  A
C1820      H1831   1.083   1_655  S
C1821      C1822   1.405       .  A
C1821      H1832   1.084   1_655  S
C1822      C1823   1.412       .  A
C1823      C1824   1.408       .  A
C1823      H1833   1.084       .  S
C1824      C1825   1.412       .  A
C1825      H1834   1.085       .  S
C1826      C1827   1.406       .  A
C1826      H1835   1.084       .  S
C1827      C1828   1.415       .  A
C1828      H1836   1.084   1_655  S
C1837      C1838   1.401       .  A
C1837      C1842   1.404       .  A
C1837      H1853   1.083       .  S
C1838      C1839   1.404       .  A
C1838      H1854   1.084       .  S
C1839      C1849   1.407       .  A
C1839      C1840   1.411       .  A
C1840      C1846   1.414   1_655  A
C1840      C1841   1.419       .  A
C1841      C1843   1.411   1_655  A
C1841      C1842   1.412       .  A
C1842      C1850   1.409       .  A
C1843      C1852   1.410       .  A
C1843      C1844   1.406       .  A
C1844      C1845   1.404       .  A
C1844      H1855   1.084       .  S
C1845      C1846   1.406       .  A
C1845      H1856   1.083       .  S
C1846      C1847   1.414       .  A
C1847      C1848   1.409   1_455  A
C1847      H1857   1.084       .  S
C1848      C1849   1.407       .  A
C1849      H1858   1.085       .  S
C1850      C1851   1.408       .  A
C1850      H1859   1.085       .  S
C1851      C1852   1.410   1_655  A
C1852      H1860   1.084       .  S
C1861      C1862   1.400       .  A
C1861      C1866   1.405       .  A
C1861      H1877   1.084       .  S
C1862      C1863   1.403       .  A
C1862      H1878   1.084       .  S
C1863      C1873   1.406       .  A
C1863      C1864   1.413   1_455  A
C1864      C1870   1.411       .  A
C1864      C1865   1.417       .  A
C1865      C1867   1.414       .  A
C1865      C1866   1.409   1_655  A
C1866      C1874   1.403       .  A
C1867      C1876   1.413       .  A
C1867      C1868   1.405       .  A
C1868      C1869   1.403       .  A
C1868      H1879   1.083       .  S
C1869      C1870   1.405       .  A
C1869      H1880   1.084       .  S
C1870      C1871   1.409       .  A
C1871      C1872   1.409       .  A
C1871      H1881   1.084       .  S
C1872      C1873   1.406   1_655  A
C1873      H1882   1.085       .  S
C1874      C1875   1.411   1_455  A
C1874      H1883   1.085       .  S
C1875      C1876   1.407       .  A
C1876      H1884   1.084       .  S
C1885      C1886   1.405       .  A
C1885      C1890   1.407       .  A
C1885      H1901   1.083       .  S
C1886      C1887   1.405       .  A
C1886      H1902   1.083       .  S
C1887      C1897   1.415       .  A
C1887      C1888   1.415       .  A
C1888      C1894   1.406       .  A
C1888      C1889   1.415       .  A
C1889      C1891   1.414       .  A
C1889      C1890   1.410       .  A
C1890      C1898   1.409       .  A
C1891      C1900   1.402       .  A
C1891      C1892   1.401       .  A
C1892      C1893   1.395       .  A
C1892      H1903   1.084       .  S
C1893      C1894   1.403       .  A
C1893      H1904   1.084       .  S
C1894      C1895   1.395       .  A
C1895      C1896   1.413       .  A
C1895      H1905   1.084       .  S
C1896      C1897   1.411       .  A
C1897      H1906   1.084       .  S
C1898      C1899   1.410       .  A
C1898      H1907   1.084       .  S
C1899      C1900   1.401       .  A
C1900      H1908   1.085       .  S
C1909      C1910   1.406       .  A
C1909      C1914   1.407       .  A
C1909      H1925   1.083       .  S
C1910      C1911   1.406       .  A
C1910      H1926   1.083       .  S
C1911      C1921   1.419       .  A
C1911      C1912   1.415       .  A
C1912      C1918   1.406       .  A
C1912      C1913   1.417       .  A
C1913      C1915   1.414       .  A
C1913      C1914   1.410       .  A
C1914      C1922   1.412       .  A
C1915      C1924   1.402       .  A
C1915      C1916   1.402       .  A
C1916      C1917   1.396       .  A
C1916      H1927   1.084   1_655  S
C1917      C1918   1.404       .  A
C1917      H1928   1.084   1_655  S
C1918      C1919   1.396       .  A
C1919      C1920   1.413       .  A
C1919      H1929   1.084       .  S
C1920      C1921   1.411       .  A
C1921      H1930   1.084       .  S
C1922      C1923   1.410       .  A
C1922      H1931   1.084       .  S
C1923      C1924   1.404       .  A
C1924      H1932   1.085   1_655  S
C1933      C1934   1.402       .  A
C1933      C1938   1.406       .  A
C1933      H1949   1.083       .  S
C1934      C1935   1.405       .  A
C1934      H1950   1.084       .  S
C1935      C1945   1.409       .  A
C1935      C1936   1.413       .  A
C1936      C1942   1.412       .  A
C1936      C1937   1.417       .  A
C1937      C1939   1.412       .  A
C1937      C1938   1.411       .  A
C1938      C1946   1.409       .  A
C1939      C1948   1.408       .  A
C1939      C1940   1.404       .  A
C1940      C1941   1.401       .  A
C1940      H1951   1.083       .  S
C1941      C1942   1.404       .  A
C1941      H1952   1.083       .  S
C1942      C1943   1.407       .  A
C1943      C1944   1.406       .  A
C1943      H1953   1.084       .  S
C1944      C1945   1.408       .  A
C1945      H1954   1.084       .  S
C1946      C1947   1.412       .  A
C1946      H1955   1.085       .  S
C1947      C1948   1.408       .  A
C1948      H1956   1.084       .  S
C1957      C1958   1.398       .  A
C1957      C1962   1.403       .  A
C1957      H1973   1.084       .  S
C1958      C1959   1.404       .  A
C1958      H1974   1.084       .  S
C1959      C1969   1.403       .  A
C1959      C1960   1.409       .  A
C1960      C1966   1.413       .  A
C1960      C1961   1.421       .  A
C1961      C1963   1.412       .  A
C1961      C1962   1.410       .  A
C1962      C1970   1.403       .  A
C1963      C1972   1.421       .  A
C1963      C1964   1.408       .  A
C1964      C1965   1.409       .  A
C1964      H1975   1.083       .  S
C1965      C1966   1.407       .  A
C1965      H1976   1.083       .  S
C1966      C1967   1.421       .  A
C1967      C1968   1.414       .  A
C1967      H1977   1.083       .  S
C1968      C1969   1.413       .  A
C1969      H1978   1.084       .  S
C1970      C1971   1.409       .  A
C1970      H1979   1.084       .  S
C1971      C1972   1.416       .  A
C1972      H1980   1.084       .  S
C1981      C1982   1.399       .  A
C1981      C1986   1.404       .  A
C1981      H1997   1.084       .  S
C1982      C1983   1.403       .  A
C1982      H1998   1.084       .  S
C1983      C1993   1.404       .  A
C1983      C1984   1.414       .  A
C1984      C1990   1.411       .  A
C1984      C1985   1.413       .  A
C1985      C1987   1.414       .  A
C1985      C1986   1.410       .  A
C1986      C1994   1.402       .  A
C1987      C1996   1.408       .  A
C1987      C1988   1.404       .  A
C1988      C1989   1.400       .  A
C1988      H1999   1.083       .  S
C1989      C1990   1.403       .  A
C1989      H2000   1.084       .  S
C1990      C1991   1.402       .  A
C1991      C1992   1.405       .  A
C1991      H2001   1.085       .  S
C1992      C1993   1.404       .  A
C1993      H2002   1.084       .  S
C1994      C1995   1.407       .  A
C1994      H2003   1.085       .  S
C1995      C1996   1.404       .  A
C1996      H2004   1.084       .  S
C2005      C2006   1.403       .  A
C2005      C2010   1.405       .  A
C2005      H2021   1.084       .  S
C2006      C2007   1.406       .  A
C2006      H2022   1.084       .  S
C2007      C2017   1.407       .  A
C2007      C2008   1.409       .  A
C2008      C2014   1.415       .  A
C2008      C2009   1.419       .  A
C2009      C2011   1.410       .  A
C2009      C2010   1.414       .  A
C2010      C2018   1.413       .  A
C2011      C2020   1.406       .  A
C2011      C2012   1.405       .  A
C2012      C2013   1.401       .  A
C2012      H2023   1.084       .  S
C2013      C2014   1.404       .  A
C2013      H2024   1.083       .  S
C2014      C2015   1.412       .  A
C2015      C2016   1.406       .  A
C2015      H2025   1.084       .  S
C2016      C2017   1.413       .  A
C2017      H2026   1.085       .  S
C2018      C2019   1.410       .  A
C2018      H2027   1.084       .  S
C2019      C2020   1.411       .  A
C2020      H2028   1.084       .  S
C2029      C2030   1.397       .  A
C2029      C2034   1.402       .  A
C2029      H2045   1.079       .  S
C2030      C2031   1.403       .  A
C2030      H2046   1.084       .  S
C2031      C2041   1.401       .  A
C2031      C2032   1.411       .  A
C2032      C2038   1.412       .  A
C2032      C2033   1.415       .  A
C2033      C2035   1.412       .  A
C2033      C2034   1.409       .  A
C2034      C2042   1.401       .  A
C2035      C2044   1.412       .  A
C2035      C2036   1.405       .  A
C2036      C2037   1.404       .  A
C2036      H2047   1.083       .  S
C2037      C2038   1.405       .  A
C2037      H2048   1.083       .  S
C2038      C2039   1.411       .  A
C2039      C2040   1.407       .  A
C2039      H2049   1.084       .  S
C2040      C2041   1.408       .  A
C2041      H2050   1.085       .  S
C2042      C2043   1.403       .  A
C2042      H2051   1.079       .  S
C2043      C2044   1.410       .  A
C2044      H2052   1.084       .  S
C2053      C2054   1.400       .  A
C2053      C2058   1.404       .  A
C2053      H2069   1.084       .  S
C2054      C2055   1.405       .  A
C2054      H2070   1.084       .  S
C2055      C2065   1.403       .  A
C2055      C2056   1.411       .  A
C2056      C2062   1.414       .  A
C2056      C2057   1.413       .  A
C2057      C2059   1.411       .  A
C2057      C2058   1.413       .  A
C2058      C2066   1.405       .  A
C2059      C2068   1.403       .  A
C2059      C2060   1.403       .  A
C2060      C2061   1.399       .  A
C2060      H2071   1.084       .  S
C2061      C2062   1.403       .  A
C2061      H2072   1.083       .  S
C2062      C2063   1.406       .  A
C2063      C2064   1.403       .  A
C2063      H2073   1.084       .  S
C2064      C2065   1.409       .  A
C2065      H2074   1.085       .  S
C2066      C2067   1.407       .  A
C2066      H2075   1.085       .  S
C2067      C2068   1.405       .  A
C2068      H2076   1.085       .  S
C2077      C2078   1.403       .  A
C2077      C2082   1.406       .  A
C2077      H2093   1.084       .  S
C2078      C2079   1.405       .  A
C2078      H2094   1.083       .  S
C2079      C2089   1.413       .  A
C2079      C2080   1.414       .  A
C2080      C2086   1.409       .  A
C2080      C2081   1.415       .  A
C2081      C2083   1.414       .  A
C2081      C2082   1.409       .  A
C2082      C2090   1.407       .  A
C2083      C2092   1.405       .  A
C2083      C2084   1.402       .  A
C2084      C2085   1.398       .  A
C2084      H2095   1.083       .  S
C2085      C2086   1.404       .  A
C2085      H2096   1.083       .  S
C2086      C2087   1.401       .  A
C2087      C2088   1.408       .  A
C2087      H2097   1.085       .  S
C2088      C2089   1.408       .  A
C2089      H2098   1.084       .  S
C2090      C2091   1.413       .  A
C2090      H2099   1.084       .  S
C2091      C2092   1.405       .  A
C2092      H2100   1.084       .  S
C2101      C2102   1.399       .  A
C2101      C2106   1.402       .  A
C2101      H2117   1.083       .  S
C2102      C2103   1.404       .  A
C2102      H2118   1.084       .  S
C2103      C2113   1.402       .  A
C2103      C2104   1.408       .  A
C2104      C2110   1.414       .  A
C2104      C2105   1.418       .  A
C2105      C2107   1.410       .  A
C2105      C2106   1.414       .  A
C2106      C2114   1.407       .  A
C2107      C2116   1.409       .  A
C2107      C2108   1.406       .  A
C2108      C2109   1.404       .  A
C2108      H2119   1.084       .  S
C2109      C2110   1.406       .  A
C2109      H2120   1.083       .  S
C2110      C2111   1.415       .  A
C2111      C2112   1.413       .  A
C2111      H2121   1.084       .  S
C2112      C2113   1.412       .  A
C2113      H2122   1.084       .  S
C2114      C2115   1.404       .  A
C2114      H2123   1.084       .  S
C2115      C2116   1.411       .  A
C2116      H2124   1.085       .  S
C2125      C2126   1.395       .  A
C2125      C2130   1.401       .  A
C2125      H2141   1.084       .  S
C2126      C2127   1.403       .  A
C2126      H2142   1.082       .  S
C2127      C2137   1.391       .  A
C2127      C2128   1.407       .  A
C2128      C2134   1.416       .  A
C2128      C2129   1.405       .  A
C2129      C2131   1.406       .  A
C2129      C2130   1.415       .  A
C2130      C2138   1.401       .  A
C2131      C2140   1.392   1_455  A
C2131      C2132   1.404   1_455  A
C2132      C2133   1.395   1_655  A
C2132      H2143   1.084       .  S
C2133      C2134   1.400       .  A
C2133      H2144   1.084   1_455  S
C2134      C2135   1.400       .  A
C2135      C2136   1.400       .  A
C2135      H2145   1.085       .  S
C2136      C2137   1.405       .  A
C2137      H2146   1.080       .  S
C2138      C2139   1.404       .  A
C2138      H2147   1.084       .  S
C2139      C2140   1.412   1_455  A
C2140      H2148   1.083       .  S
C2149      C2150   1.401       .  A
C2149      C2154   1.405       .  A
C2149      H2165   1.084       .  S
C2150      C2151   1.404       .  A
C2150      H2166   1.084       .  S
C2151      C2161   1.406       .  A
C2151      C2152   1.415   1_655  A
C2152      C2158   1.409       .  A
C2152      C2153   1.406   1_455  A
C2153      C2155   1.412   1_655  A
C2153      C2154   1.410       .  A
C2154      C2162   1.402       .  A
C2155      C2164   1.393       .  A
C2155      C2156   1.401       .  A
C2156      C2157   1.392       .  A
C2156      H2167   1.084       .  S
C2157      C2158   1.401       .  A
C2157      H2168   1.084       .  S
C2158      C2159   1.388       .  A
C2159      C2160   1.402       .  A
C2159      H2169   1.085       .  S
C2160      C2161   1.403   1_455  A
C2161      H2170   1.084       .  S
C2162      C2163   1.409       .  A
C2162      H2171   1.084       .  S
C2163      C2164   1.404   1_655  A
C2164      H2172   1.084       .  S
C2173      C2174   1.398       .  A
C2173      C2178   1.403       .  A
C2173      H2189   1.084       .  S
C2174      C2175   1.404       .  A
C2174      H2190   1.084       .  S
C2175      C2185   1.398       .  A
C2175      C2176   1.410       .  A
C2176      C2182   1.410       .  A
C2176      C2177   1.405       .  A
C2177      C2179   1.410       .  A
C2177      C2178   1.409       .  A
C2178      C2186   1.400       .  A
C2179      C2188   1.402       .  A
C2179      C2180   1.403       .  A
C2180      C2181   1.399       .  A
C2180      H2191   1.083       .  S
C2181      C2182   1.404       .  A
C2181      H2192   1.084       .  S
C2182      C2183   1.399       .  A
C2183      C2184   1.408       .  A
C2183      H2193   1.084       .  S
C2184      C2185   1.408       .  A
C2185      H2194   1.084       .  S
C2186      C2187   1.413       .  A
C2186      H2195   1.080       .  S
C2187      C2188   1.413       .  A
C2188      H2196   1.082       .  S
C2197      C2198   1.403       .  A
C2197      C2202   1.405   1_455  A
C2197      H2213   1.084       .  S
C2198      C2199   1.405   1_455  A
C2198      H2214   1.083       .  S
C2199      C2209   1.411       .  A
C2199      C2200   1.414       .  A
C2200      C2206   1.410       .  A
C2200      C2201   1.414       .  A
C2201      C2203   1.413       .  A
C2201      C2202   1.410       .  A
C2202      C2210   1.407       .  A
C2203      C2212   1.404       .  A
C2203      C2204   1.403       .  A
C2204      C2205   1.398       .  A
C2204      H2215   1.084       .  S
C2205      C2206   1.403       .  A
C2205      H2216   1.084       .  S
C2206      C2207   1.400       .  A
C2207      C2208   1.407       .  A
C2207      H2217   1.085       .  S
C2208      C2209   1.408       .  A
C2209      H2218   1.084   1_655  S
C2210      C2211   1.409       .  A
C2210      H2219   1.084   1_655  S
C2211      C2212   1.404       .  A
C2212      H2220   1.085       .  S
C2221      C2222   1.399       .  A
C2221      C2226   1.403       .  A
C2221      H2237   1.084       .  S
C2222      C2223   1.403       .  A
C2222      H2238   1.084       .  S
C2223      C2233   1.405       .  A
C2223      C2224   1.413   1_455  A
C2224      C2230   1.412       .  A
C2224      C2225   1.415       .  A
C2225      C2227   1.413       .  A
C2225      C2226   1.411   1_655  A
C2226      C2234   1.403       .  A
C2227      C2236   1.408       .  A
C2227      C2228   1.405       .  A
C2228      C2229   1.402       .  A
C2228      H2239   1.084       .  S
C2229      C2230   1.405       .  A
C2229      H2240   1.084       .  S
C2230      C2231   1.408       .  A
C2231      C2232   1.406       .  A
C2231      H2241   1.085       .  S
C2232      C2233   1.403   1_655  A
C2233      H2242   1.085       .  S
C2234      C2235   1.405   1_455  A
C2234      H2243   1.085       .  S
C2235      C2236   1.406       .  A
C2236      H2244   1.084       .  S
C2245      C2246   1.398       .  A
C2245      C2250   1.403       .  A
C2245      H2261   1.084       .  S
C2246      C2247   1.403       .  A
C2246      H2262   1.084       .  S
C2247      C2257   1.402       .  A
C2247      C2248   1.412   1_455  A
C2248      C2254   1.411       .  A
C2248      C2249   1.411   1_655  A
C2249      C2251   1.412   1_455  A
C2249      C2250   1.411       .  A
C2250      C2258   1.402       .  A
C2251      C2260   1.403       .  A
C2251      C2252   1.404       .  A
C2252      C2253   1.399       .  A
C2252      H2263   1.084       .  S
C2253      C2254   1.403       .  A
C2253      H2264   1.084       .  S
C2254      C2255   1.401       .  A
C2255      C2256   1.407       .  A
C2255      H2265   1.084       .  S
C2256      C2257   1.407   1_655  A
C2257      H2266   1.084       .  S
C2258      C2259   1.406       .  A
C2258      H2267   1.084       .  S
C2259      C2260   1.407   1_455  A
C2260      H2268   1.084       .  S
