geometry optimzed in LAMMPS
_audit_creation_date              2020-11-30 
_audit_creation_method            'lammps2cif' 
_symmetry_space_group_name_H-M    'P1' 
_symmetry_Int_Tables_number       1 
_symmetry_cell_setting            triclinic 
loop_ 
_symmetry_equiv_pos_as_xyz 
  x,y,z 
_cell_length_a                    33.236498761493586 
_cell_length_b                    33.18906190798659 
_cell_length_c                    33.15439398935084 
_cell_angle_alpha                 90.3100665845319 
_cell_angle_beta                  90.22311634429762 
_cell_angle_gamma                 90.08782492320715 
loop_ 
_atom_site_label 
_atom_site_type_symbol 
_atom_site_fract_x 
_atom_site_fract_y 
_atom_site_fract_z 
_atom_site_charge 
C1          C  0.99559194  0.27062544  0.22542053     0.03280
C2          C  0.97447152  0.29426757  0.25300669    -0.12870
C3          C  0.96565923  0.27981525  0.29101337     0.00780
C4          C  0.97172743  0.23967980  0.30015851    -0.11390
C5          C  0.99316816  0.21471800  0.27404852     0.03270
C6          C  0.00598297  0.23026546  0.23607082    -0.10820
H7          H  0.96965858  0.32601860  0.24683862     0.08870
H8          H  0.96516219  0.22954283  0.33054492     0.06400
H9          H  0.02424882  0.21207849  0.21610323     0.06240
O10         O  0.98998264  0.39135373  0.44542610    -0.79980
O11         O  0.98883134  0.61923031  0.43348720    -0.81530
O12         O  0.92160729  0.50317349  0.39311075    -0.78550
O13         O  0.05990343  0.50329194  0.38797359    -0.76940
O14         O  0.10761092  0.50706245  0.43768942    -0.78730
O15         O  0.87615131  0.50455346  0.44485571    -0.79660
O16         O  0.98416610  0.56830496  0.38665962    -0.80990
O17         O  0.98428853  0.43766650  0.39449031    -0.81280
Eu18       Eu  0.99214708  0.50497625  0.42221197     2.39200
O19         O  0.03442532  0.54872360  0.46006238    -0.88790
O20         O  0.95397447  0.46659137  0.46741959    -0.92390
C21         C  0.98458566  0.40163117  0.40850910     1.02300
C22         C  0.98330173  0.60560809  0.39744363     1.02120
C23         C  0.88507084  0.50330602  0.40723557     1.02060
C24         C  0.09712052  0.50494939  0.40037990     0.99920
H25         H  0.93532518  0.56281914  0.44668624     0.29670
O26         O  0.95347987  0.54753878  0.46342393    -1.01170
H27         H  0.05108153  0.44837065  0.44763189     0.29700
O28         O  0.03457799  0.46593296  0.46394564    -1.03710
O29         O  0.00298849  0.62774562  0.56432694    -0.80940
O30         O  0.99430157  0.39915877  0.57546248    -0.80480
O31         O  0.87992520  0.57338696  0.50163974    -0.78920
O32         O  0.11037698  0.57383973  0.50221245    -0.82260
O33         O  0.11190279  0.44612747  0.50532823    -0.80110
O34         O  0.87955863  0.44527423  0.51179554    -0.78760
O35         O  0.92836686  0.51948918  0.62114232    -0.80280
O36         O  0.06359728  0.51547444  0.61851825    -0.82200
O37         O  0.88028096  0.51517274  0.57206410    -0.78940
O38         O  0.11013776  0.51330423  0.56794514    -0.81620
O39         O  0.92656082  0.62390928  0.49896274    -0.77350
O40         O  0.92724821  0.39547171  0.50997742    -0.77390
O41         O  0.06538814  0.39543890  0.50960444    -0.77030
O42         O  0.06344067  0.62396730  0.50012025    -0.80530
O43         O  0.00189059  0.58043845  0.61456366    -0.79950
O44         O  0.99146927  0.44944832  0.62309573    -0.78280
Eu45       Eu  0.99483074  0.59156100  0.50083975     2.39770
Eu46       Eu  0.99593255  0.42727280  0.50871474     2.39570
Eu47       Eu  0.91431227  0.50935559  0.50734647     2.38400
Eu48       Eu  0.07501492  0.50934556  0.50306886     2.39880
Eu49       Eu  0.99538857  0.51331497  0.58708291     2.39790
O50         O  0.03652052  0.47043645  0.54776399    -0.92700
O51         O  0.95438383  0.55377352  0.54565047    -0.91590
C52         C  0.00595068  0.61654383  0.60132931     1.02470
C53         C  0.99144748  0.41221115  0.61188393     1.01190
C54         C  0.88968770  0.61072122  0.49900115     1.00580
C55         C  0.10046918  0.61132034  0.50162297     1.02600
C56         C  0.10228425  0.40871740  0.50771217     1.01510
C57         C  0.89027088  0.40814621  0.51137694     1.00360
C58         C  0.89108804  0.51874488  0.60920207     1.00420
C59         C  0.10035747  0.51552045  0.60547212     1.03030
H60         H  0.93789481  0.45421085  0.56612523     0.30410
O61         O  0.95505387  0.46972854  0.54862771    -1.04860
H62         H  0.05299371  0.56818530  0.55782543     0.32460
O63         O  0.03493386  0.55120086  0.54248682    -1.07420
C64         C  0.03024143  0.72952289  0.78669252     0.03280
C65         C  0.05983772  0.71039376  0.76356874    -0.12870
C66         C  0.06471777  0.72136251  0.72348393     0.00780
C67         C  0.05452859  0.76026226  0.71237250    -0.11390
C68         C  0.02633536  0.78183061  0.73492470     0.03270
C69         C  0.01238681  0.76556609  0.77197041    -0.10820
H70         H  0.07018269  0.68072690  0.77254381     0.08870
H71         H  0.06099411  0.77008867  0.68189922     0.06400
H72         H  0.98803466  0.77985495  0.78820675     0.06240
C73         C  0.98884502  0.26655892  0.78513052     0.03280
C74         C  0.99678598  0.22703001  0.77037209    -0.12870
C75         C  0.98327804  0.21608616  0.73099927     0.00780
C76         C  0.96366694  0.24474044  0.70737813    -0.11390
C77         C  0.96068100  0.28450091  0.72037773     0.03270
C78         C  0.96976098  0.29428072  0.76005561    -0.10820
H79         H  0.01390456  0.20596915  0.78837095     0.08870
H80         H  0.95643514  0.23764623  0.67616038     0.06400
H81         H  0.96746632  0.32547113  0.76983071     0.06240
C82         C  0.98833803  0.72744191  0.21661956     0.03280
C83         C  0.96127359  0.70523987  0.23985916    -0.12870
C84         C  0.94716083  0.72056113  0.27627877     0.00780
C85         C  0.95126062  0.76158687  0.28406897    -0.11390
C86         C  0.98152113  0.78329801  0.26463703     0.03270
C87         C  0.00040954  0.76628813  0.23017810    -0.10820
H88         H  0.95663310  0.67363604  0.23272388     0.08870
H89         H  0.93914802  0.77330692  0.31216072     0.06400
H90         H  0.02478378  0.78200859  0.21543843     0.06240
O91         O  0.00755013  0.10774115  0.43191435    -0.79980
O92         O  0.00553168  0.87892038  0.43218740    -0.81530
O93         O  0.07373878  0.99856784  0.39025127    -0.78550
O94         O  0.94538069  0.99251718  0.38418450    -0.76940
O95         O  0.89379642  0.98658473  0.42923758    -0.78730
O96         O  0.12217646  0.00154449  0.43927395    -0.79660
O97         O  0.00849511  0.93025850  0.38643539    -0.80990
O98         O  0.00756604  0.05676791  0.38522700    -0.81280
Eu99       Eu  0.00795101  0.99367092  0.42210641     2.39200
O100        O  0.96643430  0.95010602  0.45955071    -0.88790
O101        O  0.04649227  0.03466953  0.46457540    -0.92390
C102        C  0.00807689  0.09428332  0.39488798     1.02300
C103        C  0.00652403  0.89280059  0.39545829     1.02120
C104        C  0.11065820  0.00180192  0.40168655     1.02060
C105        C  0.90794673  0.98904101  0.39287929     0.99920
H106        H  0.06469808  0.93886838  0.44570734     0.29670
O107        O  0.04794935  0.95400893  0.46399556    -1.01170
H108        H  0.94813622  0.04979194  0.44134275     0.29700
O109        O  0.96443198  0.03404395  0.45954254    -1.03710
O110        O  0.00767239  0.88018471  0.57230465    -0.80940
O111        O  0.00176689  0.10970217  0.56996209    -0.80480
O112        O  0.12114080  0.93102158  0.49632525    -0.78920
O113        O  0.89373056  0.92593060  0.50594678    -0.82260
O114        O  0.88986406  0.05556835  0.49616581    -0.80110
O115        O  0.11757309  0.06191892  0.50261969    -0.78760
O116        O  0.06374483  0.99674376  0.62172743    -0.80280
O117        O  0.93712793  0.99254127  0.61432438    -0.82200
O118        O  0.11656384  0.99283401  0.57790968    -0.78940
O119        O  0.88862443  0.99075579  0.56545596    -0.81620
O120        O  0.07422464  0.88033797  0.49384758    -0.77350
O121        O  0.06738537  0.10900581  0.49870729    -0.77390
O122        O  0.93703165  0.10615693  0.49593197    -0.77030
O123        O  0.94169197  0.87680929  0.51121149    -0.80530
O124        O  0.00375207  0.93211848  0.61790952    -0.79950
O125        O  0.99847893  0.05963384  0.61702720    -0.78280
Eu126      Eu  0.00726534  0.91016154  0.50221204     2.39770
Eu127      Eu  0.00327417  0.07636251  0.50146950     2.39570
Eu128      Eu  0.08776665  0.99527846  0.50663539     2.38400
Eu129      Eu  0.92387833  0.99133077  0.49856338     2.39880
Eu130      Eu  0.00272704  0.99529503  0.58199945     2.39790
O131        O  0.96148747  0.03485392  0.54063427    -0.92700
O132        O  0.04614695  0.95278597  0.54499467    -0.91590
C133        C  0.00582158  0.89451689  0.60895562     1.02470
C134        C  0.99939099  0.09692544  0.60691575     1.01190
C135        C  0.11038001  0.89420144  0.49014995     1.00580
C136        C  0.90505789  0.88966971  0.51314416     1.02600
C137        C  0.90072444  0.09271851  0.49464913     1.01510
C138        C  0.10434941  0.09809819  0.49824409     1.00360
C139        C  0.10147538  0.99461503  0.61418548     1.00420
C140        C  0.90011162  0.99112517  0.60299503     1.03030
H141        H  0.06042383  0.05446793  0.56197042     0.30410
O142        O  0.04471221  0.03729876  0.54431610    -1.04860
H143        H  0.94925498  0.93676563  0.55837596     0.32460
O144        O  0.96541824  0.95273967  0.54041008    -1.07420
C145        C  0.22795443  0.29130587  0.49546641     0.03280
C146        C  0.20217235  0.26084961  0.48216620    -0.12870
C147        C  0.21688061  0.22323023  0.47119110     0.00780
C148        C  0.25785183  0.21702708  0.46899840    -0.11390
C149        C  0.28410877  0.24322392  0.48876026     0.03270
C150        C  0.26952471  0.28176221  0.50176015    -0.10820
H151        H  0.16995872  0.26604133  0.48274833     0.08870
H152        H  0.26864626  0.18788769  0.45863036     0.06400
H153        H  0.28948850  0.30315192  0.51635361     0.06240
C154        C  0.77060118  0.28541044  0.50711007     0.03280
C155        C  0.79637769  0.25334586  0.49841406    -0.12870
C156        C  0.78181830  0.21443729  0.49403552     0.00780
C157        C  0.74113790  0.20702730  0.49783992    -0.11390
C158        C  0.71513232  0.23695292  0.51157994     0.03270
C159        C  0.72940815  0.27724057  0.51551677    -0.10820
H160        H  0.82845912  0.25879845  0.49571628     0.08870
H161        H  0.72998915  0.17659836  0.49302901     0.06400
H162        H  0.70933935  0.30119797  0.52474509     0.06240
C163        C  0.71769291  0.78056447  0.52522669     0.03280
C164        C  0.73364176  0.74705541  0.50394468    -0.12870
C165        C  0.77023215  0.72986987  0.51744905     0.00780
C166        C  0.79128109  0.74827613  0.54910125    -0.11390
C167        C  0.77924924  0.78579597  0.56379170     0.03270
C168        C  0.73894263  0.79624667  0.55839009    -0.10820
H169        H  0.71866310  0.73545794  0.47724315     0.08870
H170        H  0.82087618  0.73677107  0.55641587     0.06400
H171        H  0.72739194  0.82271460  0.57372600     0.06240
C172        C  0.22725365  0.72727721  0.48131820     0.03280
C173        C  0.21200648  0.74560285  0.44660758    -0.12870
C174        C  0.22726495  0.78274580  0.43417133     0.00780
C175        C  0.26746155  0.79072711  0.44383797    -0.11390
C176        C  0.28340211  0.77535405  0.47982903     0.03270
C177        C  0.26270797  0.74339596  0.49942829    -0.10820
H178        H  0.18339525  0.73497951  0.43519347     0.08870
H179        H  0.28186263  0.81669537  0.43031855     0.06400
H180        H  0.27304550  0.73242451  0.52834888     0.06240
C181        C  0.73878998  0.00695476  0.21696212     0.03280
C182        C  0.77713463  0.99492807  0.23152128    -0.12870
C183        C  0.78818550  0.00491568  0.27178053     0.00780
C184        C  0.75999349  0.02310275  0.29710421    -0.11390
C185        C  0.72182992  0.03257714  0.28294678     0.03270
C186        C  0.71313999  0.02858810  0.24219717    -0.10820
H187        H  0.79727549  0.97770962  0.21253083     0.08870
H188        H  0.76677001  0.02653992  0.32899340     0.06400
H189        H  0.68328358  0.03663556  0.23152895     0.06240
O190        O  0.38224880  0.07709926  0.50055463    -0.79980
O191        O  0.60875000  0.08389347  0.51097539    -0.81530
O192        O  0.49358403  0.12472530  0.56536479    -0.78550
O193        O  0.49587341  0.12235240  0.43684117    -0.76940
O194        O  0.49296684  0.07508937  0.38649714    -0.78730
O195        O  0.49329129  0.07875130  0.61666687    -0.79660
O196        O  0.55659155  0.12834256  0.50478807    -0.80990
O197        O  0.43258009  0.12416501  0.50123455    -0.81280
Eu198      Eu  0.49546746  0.08877843  0.50160337     2.39200
O199        O  0.53943219  0.05054704  0.46231299    -0.88790
O200        O  0.45657011  0.04781241  0.54332208    -0.92390
C201        C  0.39538090  0.11427984  0.50076792     1.02300
C202        C  0.59398578  0.12022993  0.50972812     1.02120
C203        C  0.49284219  0.11537212  0.60286519     1.02060
C204        C  0.49399370  0.11206683  0.39950740     0.99920
H205        H  0.55131452  0.06993680  0.56074775     0.29670
O206        O  0.53660208  0.05097170  0.54420230    -1.01170
H207        H  0.43761263  0.06410653  0.44218941     0.29700
O208        O  0.45478607  0.04829450  0.45951989    -1.03710
O209        O  0.61545144  0.94480452  0.50499045    -0.80940
O210        O  0.38490049  0.93834251  0.50676740    -0.80480
O211        O  0.56273792  0.02128565  0.61897143    -0.78920
O212        O  0.56540665  0.01597266  0.39136547    -0.82260
O213        O  0.43626130  0.99010896  0.39032968    -0.80110
O214        O  0.43295727  0.01370163  0.61733118    -0.78760
O215        O  0.50165126  0.89357634  0.56731863    -0.80280
O216        O  0.50211152  0.89326724  0.43989025    -0.82200
O217        O  0.50209446  0.93989689  0.61855233    -0.78940
O218        O  0.50610922  0.93959519  0.38933447    -0.81620
O219        O  0.61250394  0.02264978  0.57139896    -0.77350
O220        O  0.38451124  0.01214835  0.56777041    -0.77390
O221        O  0.38564190  0.98905580  0.43696980    -0.77030
O222        O  0.61394161  0.02117693  0.44052835    -0.80530
O223        O  0.56572359  0.89702672  0.50525980    -0.79950
O224        O  0.43651241  0.89296979  0.50382920    -0.78280
Eu225      Eu  0.58138473  0.01283231  0.50542591     2.39770
Eu226      Eu  0.41535132  0.00751726  0.50217004     2.39570
Eu227      Eu  0.49824658  0.00928145  0.58617293     2.38400
Eu228      Eu  0.49962161  0.00831245  0.42120284     2.39880
Eu229      Eu  0.50070177  0.92954820  0.50413301     2.39790
O230        O  0.45976373  0.96874279  0.46328014    -0.92700
O231        O  0.54169497  0.97002335  0.54618622    -0.91590
C232        C  0.60290287  0.90758422  0.50524752     1.02470
C233        C  0.39876875  0.90171708  0.50573590     1.01190
C234        C  0.59940551  0.02660745  0.60774366     1.00580
C235        C  0.60183967  0.02107541  0.40360466     1.02600
C236        C  0.39994686  0.98276808  0.40136861     1.01510
C237        C  0.39642820  0.01497618  0.60459731     1.00360
C238        C  0.50215819  0.90290966  0.60491345     1.00420
C239        C  0.50497584  0.90270267  0.40240180     1.03030
H240        H  0.44138943  0.95102530  0.56150988     0.30410
O241        O  0.45746261  0.96833871  0.54465450    -1.04860
H242        H  0.55941286  0.95389484  0.44727136     0.32460
O243        O  0.54188173  0.97037878  0.46361321    -1.07420
C244        C  0.26866153  0.00924560  0.79225598     0.03280
C245        C  0.22820440  0.99858752  0.78173142    -0.12870
C246        C  0.21305142  0.00950160  0.74283923     0.00780
C247        C  0.23787732  0.03063543  0.71665153    -0.11390
C248        C  0.27845086  0.03498751  0.72487664     0.03270
C249        C  0.29321810  0.02637009  0.76297574    -0.10820
H250        H  0.20955504  0.98208744  0.80263693     0.08870
H251        H  0.22708197  0.03793056  0.68657884     0.06400
H252        H  0.32516910  0.02975627  0.76902966     0.06240
C253        C  0.73267708  0.01947400  0.78012347     0.03280
C254        C  0.76443056  0.99927280  0.75990264    -0.12870
C255        C  0.77699975  0.01336756  0.72163055     0.00780
C256        C  0.75516790  0.04420658  0.70315495    -0.11390
C257        C  0.72109830  0.06059783  0.72155627     0.03270
C258        C  0.71555727  0.05364712  0.76258180    -0.10820
H259        H  0.77778482  0.97249956  0.77275054     0.08870
H260        H  0.76181419  0.05107595  0.67202674     0.06400
H261        H  0.69040399  0.06809329  0.77760052     0.06240
C262        C  0.27814088  0.97847812  0.22339841     0.03280
C263        C  0.24626041  0.99944077  0.24300479    -0.12870
C264        C  0.23215706  0.98526105  0.28088121     0.00780
C265        C  0.25287532  0.95388170  0.29967765    -0.11390
C266        C  0.28780364  0.93785238  0.28271383     0.03270
C267        C  0.29425474  0.94417459  0.24174965    -0.10820
H268        H  0.23355054  0.02631325  0.22973128     0.08870
H269        H  0.24481880  0.94638116  0.33035545     0.06400
H270        H  0.31885182  0.92844639  0.22717121     0.06240
O271        O  0.57966902  0.98662830  0.11461691    -0.79980
O272        O  0.57220405  0.99775163  0.88539702    -0.81530
O273        O  0.62382880  0.93351174  0.99850090    -0.78550
O274        O  0.62540460  0.05808843  0.99914497    -0.76940
O275        O  0.58059806  0.10976111  0.00693045    -0.78730
O276        O  0.57740457  0.88262942  0.99595193    -0.79660
O277        O  0.62014160  0.99698912  0.93492516    -0.80990
O278        O  0.62438658  0.99365633  0.06274235    -0.81280
Eu279      Eu  0.58727991  0.99571499  0.00001449     2.39200
O280        O  0.54753240  0.03997722  0.96285121    -0.88790
O281        O  0.54920616  0.95307787  0.04185209    -0.92390
C282        C  0.61596401  0.98939209  0.10020088     1.02300
C283        C  0.60944105  0.99716459  0.89766972     1.02120
C284        C  0.61437165  0.89618761  0.99700936     1.02060
C285        C  0.61688117  0.09562179  0.00272166     0.99920
H286        H  0.56230696  0.94022690  0.93891480     0.29670
O287        O  0.54646150  0.95671710  0.95691680    -1.01170
H288        H  0.56913888  0.04991178  0.06157545     0.29700
O289        O  0.55024102  0.03506559  0.04503333    -1.03710
O290        O  0.43452413  0.00271919  0.89081035    -0.80940
O291        O  0.44133190  0.99839857  0.11937370    -0.80480
O292        O  0.49271646  0.88739880  0.93201421    -0.78920
O293        O  0.51294725  0.11518852  0.94438010    -0.82260
O294        O  0.51909583  0.10734600  0.07544588    -0.80110
O295        O  0.49744364  0.88065777  0.06265984    -0.78760
O296        O  0.39262802  0.93524611  0.99927359    -0.80280
O297        O  0.39547300  0.06611953  0.01029476    -0.82200
O298        O  0.43895632  0.88454237  0.99509870    -0.78940
O299        O  0.44382356  0.11494800  0.01342267    -0.81620
O300        O  0.49269518  0.93903651  0.88628450    -0.77350
O301        O  0.49759701  0.92732660  0.11400184    -0.77390
O302        O  0.51823239  0.05625454  0.12198572    -0.77030
O303        O  0.51167056  0.06906792  0.89248405    -0.80530
O304        O  0.38943685  0.00236876  0.94281627    -0.79950
O305        O  0.39380553  0.99799661  0.06937365    -0.78280
Eu306      Eu  0.50514957  0.00194807  0.92037482     2.39770
Eu307      Eu  0.50969861  0.99340593  0.08560107     2.39570
Eu308      Eu  0.50758644  0.91495574  0.99865538     2.38400
Eu309      Eu  0.51053629  0.08003891  0.00796579     2.39880
Eu310      Eu  0.42784289  0.00033143  0.00492815     2.39790
O311        O  0.46956501  0.03836575  0.04806774    -0.92700
O312        O  0.46744679  0.96071939  0.96258155    -0.91590
C313        C  0.39803265  0.00239657  0.90514413     1.02470
C314        C  0.40410772  0.99822346  0.10673939     1.01190
C315        C  0.48753569  0.90214628  0.89651653     1.00580
C316        C  0.51412428  0.10506557  0.90692330     1.02600
C317        C  0.52165503  0.09327538  0.11142719     1.01510
C318        C  0.49228705  0.89159275  0.09965060     1.00360
C319        C  0.40219628  0.89769480  0.99577155     1.00420
C320        C  0.40647351  0.10323119  0.01305982     1.03030
H321        H  0.44942535  0.94001286  0.05671746     0.30410
O322        O  0.46818751  0.95615018  0.04163927    -1.04860
H323        H  0.45026343  0.06089649  0.94935984     0.32460
O324        O  0.46724884  0.04291052  0.96462379    -1.07420
C325        C  0.51285531  0.23528384  0.28361005     0.03280
C326        C  0.54073055  0.21273589  0.26160164    -0.12870
C327        C  0.54688475  0.22057287  0.22123520     0.00780
C328        C  0.53427215  0.25682997  0.20511629    -0.11390
C329        C  0.50679961  0.28091087  0.22596550     0.03270
C330        C  0.49500689  0.26976864  0.26560554    -0.10820
H331        H  0.55083898  0.18389753  0.27321904     0.08870
H332        H  0.54012001  0.26261890  0.17346770     0.06400
H333        H  0.47193023  0.28654788  0.28133342     0.06240
C334        C  0.48581555  0.77846562  0.28227142     0.03280
C335        C  0.46205042  0.79925450  0.25443100    -0.12870
C336        C  0.44837359  0.78055701  0.21918934     0.00780
C337        C  0.45058229  0.73894855  0.21603815    -0.11390
C338        C  0.47784987  0.71777624  0.24007463     0.03270
C339        C  0.49563082  0.73745495  0.27408049    -0.10820
H340        H  0.45842765  0.83152608  0.25803955     0.08870
H341        H  0.43824486  0.72459408  0.18919036     0.06400
H342        H  0.51739704  0.72186151  0.29265205     0.06240
C343        C  0.48139612  0.77572996  0.71858816     0.03280
C344        C  0.44921663  0.79543343  0.73719969    -0.12870
C345        C  0.44204353  0.78920110  0.77796257     0.00780
C346        C  0.45482458  0.75327493  0.79523338    -0.11390
C347        C  0.48376564  0.72942609  0.77630932     0.03270
C348        C  0.49916052  0.74187415  0.73820498    -0.10820
H349        H  0.43747341  0.82276963  0.72369182     0.08870
H350        H  0.44741706  0.74691357  0.82638264     0.06400
H351        H  0.52441909  0.72635082  0.72474086     0.06240
C352        C  0.50303829  0.23842053  0.72184724     0.03280
C353        C  0.51872579  0.21302671  0.75134970    -0.12870
C354        C  0.52723820  0.22735814  0.78979751     0.00780
C355        C  0.52354005  0.26805487  0.79835450    -0.11390
C356        C  0.50702392  0.29441544  0.77019366     0.03270
C357        C  0.49622981  0.27971033  0.73124897    -0.10820
H358        H  0.52107890  0.18096047  0.74517630     0.08870
H359        H  0.52982889  0.27858797  0.82881570     0.06400
H360        H  0.48229522  0.29943542  0.70939564     0.06240
O361        O  0.01158172  0.43192300  0.11884286    -0.79980
O362        O  0.01073203  0.42231961  0.88978483    -0.81530
O363        O  0.94525397  0.38150489  0.00545690    -0.78550
O364        O  0.07348853  0.38316712  0.00613274    -0.76940
O365        O  0.12470711  0.42912873  0.00955121    -0.78730
O366        O  0.89528783  0.42868253  0.00040495    -0.79660
O367        O  0.00958528  0.37838394  0.94281517    -0.80990
O368        O  0.00815311  0.38369554  0.06955909    -0.81280
Eu369      Eu  0.00929052  0.41734149  0.00511237     2.39200
O370        O  0.04888500  0.45701452  0.96301097    -0.88790
O371        O  0.96667300  0.45805080  0.04377600    -0.92390
C372        C  0.00986565  0.39452526  0.10670311     1.02300
C373        C  0.01029439  0.38621503  0.90491562     1.02120
C374        C  0.90809450  0.39172381  0.00245723     1.02060
C375        C  0.11095604  0.39235711  0.00832084     0.99920
H376        H  0.95302176  0.43632239  0.94637480     0.29670
O377        O  0.96905208  0.45528591  0.96166372    -1.01170
H378        H  0.06841182  0.44224858  0.06325780     0.29700
O379        O  0.05182593  0.45805902  0.04536717    -1.03710
O380        O  0.00830407  0.56156316  0.88271352    -0.80940
O381        O  0.01089526  0.56906284  0.11266285    -0.80480
O382        O  0.89518784  0.48752666  0.93544594    -0.78920
O383        O  0.12215801  0.48035740  0.93689851    -0.82260
O384        O  0.12223779  0.51733614  0.06727595    -0.80110
O385        O  0.89470059  0.50012691  0.06457670    -0.78760
O386        O  0.94669041  0.61368241  0.99626713    -0.80280
O387        O  0.07312302  0.61171924  0.99614558    -0.82200
O388        O  0.89577811  0.56720546  0.99590044    -0.78940
O389        O  0.12452319  0.56620311  0.99415797    -0.81620
O390        O  0.94227980  0.48188460  0.88555381    -0.77350
O391        O  0.94269899  0.50377346  0.11443111    -0.77390
O392        O  0.07213190  0.51461365  0.11427093    -0.77030
O393        O  0.07397597  0.47883553  0.88731307    -0.80530
O394        O  0.00884252  0.60913768  0.93290527    -0.79950
O395        O  0.01128385  0.61391399  0.06050275    -0.78280
Eu396      Eu  0.00868940  0.49325590  0.91721676     2.39770
Eu397      Eu  0.00852448  0.49941814  0.08336058     2.39570
Eu398      Eu  0.92714877  0.49756055  0.99980067     2.38400
Eu399      Eu  0.09244570  0.49753118  0.00184535     2.39880
Eu400      Eu  0.00933075  0.57625439  0.99714624     2.39790
O401        O  0.04874626  0.53737901  0.03979665    -0.92700
O402        O  0.96732068  0.53614610  0.95615521    -0.91590
C403        C  0.00885885  0.59877631  0.89566760     1.02470
C404        C  0.01184151  0.60540314  0.09832421     1.01190
C405        C  0.90578411  0.48068739  0.89885831     1.00580
C406        C  0.11010369  0.47348677  0.90047021     1.02600
C407        C  0.10826296  0.52240636  0.10328448     1.01510
C408        C  0.90614396  0.50318879  0.10152130     1.00360
C409        C  0.90927873  0.60413304  0.99569975     1.00420
C410        C  0.11070584  0.60292433  0.99454870     1.03030
H411        H  0.95183315  0.55710011  0.05580383     0.30410
O412        O  0.96820611  0.53883445  0.04015875    -1.04860
H413        H  0.06796363  0.55125898  0.93939072     0.32460
O414        O  0.05133731  0.53520292  0.95694367    -1.07420
C415        C  0.76360640  0.50784033  0.28646819     0.03280
C416        C  0.79210763  0.51305931  0.25626031    -0.12870
C417        C  0.78085891  0.51542216  0.21612830     0.00780
C418        C  0.74061687  0.51386041  0.20535606    -0.11390
C419        C  0.71106007  0.50577066  0.23390222     0.03270
C420        C  0.72226143  0.50298735  0.27546063    -0.10820
H421        H  0.82384772  0.51394149  0.26413477     0.08870
H422        H  0.73238398  0.51648117  0.17375019     0.06400
H423        H  0.69981363  0.49700485  0.29821938     0.06240
C424        C  0.22100450  0.52538828  0.28158683     0.03280
C425        C  0.20809059  0.56178555  0.26461362    -0.12870
C426        C  0.21728495  0.57010571  0.22434360     0.00780
C427        C  0.25227591  0.55296735  0.20876564    -0.11390
C428        C  0.26814337  0.51788138  0.22564494     0.03270
C429        C  0.25143820  0.50284687  0.26184648    -0.10820
H430        H  0.18306210  0.57752014  0.27847358     0.08870
H431        H  0.26290483  0.56175618  0.17928929     0.06400
H432        H  0.26089873  0.47398388  0.27358747     0.06240
C433        C  0.22220218  0.49387242  0.72475021     0.03280
C434        C  0.20479121  0.46174094  0.74553864    -0.12870
C435        C  0.22370484  0.44503278  0.77944570     0.00780
C436        C  0.26444368  0.45363379  0.78504410    -0.11390
C437        C  0.28042278  0.48922424  0.76926850     0.03270
C438        C  0.25946894  0.50951020  0.73825293    -0.10820
H439        H  0.17423066  0.45355549  0.73771639     0.08870
H440        H  0.28135653  0.43770649  0.80788451     0.06400
H441        H  0.27112120  0.53733813  0.72599836     0.06240
C442        C  0.77299472  0.49499193  0.73132786     0.03280
C443        C  0.79387441  0.46459246  0.75151788    -0.12870
C444        C  0.77954755  0.44901949  0.78768149     0.00780
C445        C  0.73934056  0.45586967  0.79776880    -0.11390
C446        C  0.71859003  0.48833637  0.78076091     0.03270
C447        C  0.73539302  0.50819618  0.74681782    -0.10820
H448        H  0.82442624  0.45814531  0.74226590     0.08870
H449        H  0.72765572  0.44235943  0.82508227     0.06400
H450        H  0.72058658  0.53421607  0.73401612     0.06240
C451        C  0.22546130  0.26681809  0.98773926     0.03280
C452        C  0.24128098  0.28391196  0.95276985    -0.12870
C453        C  0.28243602  0.28161198  0.94581158     0.00780
C454        C  0.30367995  0.24962048  0.96324756    -0.11390
C455        C  0.28664438  0.22640505  0.99390811     0.03270
C456        C  0.24782510  0.23676930  0.00821795    -0.10820
H457        H  0.22377011  0.30624497  0.93670692     0.08870
H458        H  0.33508476  0.24494888  0.95612802     0.06400
H459        H  0.23594428  0.22282606  0.03511294     0.06240
O460        O  0.48480235  0.38726931  0.06550182    -0.79980
O461        O  0.49653858  0.61637969  0.08028273    -0.81530
O462        O  0.55118115  0.49988199  0.12243916    -0.78550
O463        O  0.42363010  0.49797706  0.11556587    -0.76940
O464        O  0.37454553  0.49689504  0.06729918    -0.78730
O465        O  0.60303870  0.49845875  0.07725459    -0.79660
O466        O  0.48861362  0.56313287  0.12314956    -0.80990
O467        O  0.48782536  0.43575853  0.11459896    -0.81280
Eu468      Eu  0.48894077  0.50105625  0.08347939     2.39200
O469        O  0.45084900  0.54486603  0.04427650    -0.88790
O470        O  0.53103993  0.46079390  0.04344745    -0.92390
C471        C  0.48570117  0.39887119  0.10313279     1.02300
C472        C  0.49308264  0.60096182  0.11613501     1.02120
C473        C  0.58880220  0.49865118  0.11377870     1.02060
C474        C  0.38656893  0.49582592  0.10469070     0.99920
H475        H  0.54807523  0.55858876  0.06689664     0.29670
O476        O  0.53170190  0.54380827  0.04778081    -1.01170
H477        H  0.43022736  0.44418007  0.05490901     0.29700
O478        O  0.44773538  0.46200300  0.04014849    -1.03710
O479        O  0.49554566  0.62570037  0.94168051    -0.80940
O480        O  0.49111136  0.39700158  0.92718152    -0.80480
O481        O  0.60718719  0.56764306  0.01503407    -0.78920
O482        O  0.37975932  0.57138624  0.01849682    -0.82260
O483        O  0.37827995  0.44351208  0.98084164    -0.80110
O484        O  0.60456292  0.43851971  0.00042780    -0.78760
O485        O  0.56011668  0.51189709  0.89122064    -0.80280
O486        O  0.43168754  0.51363620  0.88761067    -0.82200
O487        O  0.60873314  0.50918468  0.93999410    -0.78940
O488        O  0.37931917  0.51543716  0.93199514    -0.81620
O489        O  0.55978864  0.61793761  0.01400096    -0.77350
O490        O  0.55509427  0.39026170  0.99700600    -0.77390
O491        O  0.42582872  0.39371088  0.98051577    -0.77030
O492        O  0.42810911  0.62030693  0.02431727    -0.80530
O493        O  0.49737659  0.57700859  0.89269837    -0.79950
O494        O  0.49414468  0.45061875  0.88403546    -0.78280
Eu495      Eu  0.49310162  0.58921995  0.00912467     2.39770
Eu496      Eu  0.49017930  0.42328476  0.99858462     2.39570
Eu497      Eu  0.57370899  0.50397834  0.00715034     2.38400
Eu498      Eu  0.40947475  0.50711186  0.00087889     2.39880
Eu499      Eu  0.49482166  0.51185190  0.92441166     2.39790
O500        O  0.45278142  0.46920202  0.96055027    -0.92700
O501        O  0.53551389  0.54949016  0.96824415    -0.91590
C502        C  0.49692360  0.61399627  0.90402862     1.02470
C503        C  0.49258034  0.41269898  0.89134048     1.01190
C504        C  0.59601343  0.60459749  0.01636867     1.00580
C505        C  0.39165603  0.60726016  0.02744489     1.02600
C506        C  0.39015988  0.40718541  0.97384472     1.01510
C507        C  0.59197480  0.40204285  0.99695552     1.00360
C508        C  0.59718173  0.51091687  0.90247809     1.00420
C509        C  0.39395769  0.51504667  0.89569348     1.03030
H510        H  0.54984592  0.45106824  0.94441048     0.30410
O511        O  0.53316251  0.46657776  0.96249697    -1.04860
H512        H  0.43573323  0.56983977  0.94844058     0.32460
O513        O  0.45169582  0.55171291  0.96460820    -1.07420
C514        C  0.74248415  0.78492806  0.00639346     0.03280
C515        C  0.78242990  0.77118554  0.99785128    -0.12870
C516        C  0.79196392  0.72952243  0.00408469     0.00780
C517        C  0.76124818  0.70308614  0.01484883    -0.11390
C518        C  0.72277644  0.71705994  0.02193128     0.03270
C519        C  0.71451425  0.75767633  0.02108022    -0.10820
H520        H  0.80497597  0.79186334  0.98677453     0.08870
H521        H  0.76702552  0.67091612  0.01607472     0.06400
H522        H  0.68400622  0.76755649  0.02747454     0.06240
C523        C  0.27869531  0.77937954  0.01736367     0.03280
C524        C  0.24251874  0.76410771  0.00023128    -0.12870
C525        C  0.22149417  0.73293438  0.02044589     0.00780
C526        C  0.23651757  0.71881243  0.05725695    -0.11390
C527        C  0.27695303  0.72551771  0.06679599     0.03270
C528        C  0.29504937  0.76010500  0.05112525    -0.10820
H529        H  0.23195163  0.77498898  0.97135434     0.08870
H530        H  0.22104410  0.69404537  0.07181929     0.06400
H531        H  0.32517096  0.76842280  0.06044925     0.06240
C532        C  0.73622565  0.21617263  0.98964671     0.03280
C533        C  0.77683951  0.22972071  0.99375624    -0.12870
C534        C  0.78548403  0.27158646  0.98887749     0.00780
C535        C  0.75359769  0.29841292  0.98371163    -0.11390
C536        C  0.71431298  0.28475816  0.98043368     0.03270
C537        C  0.70624570  0.24392903  0.98046885    -0.10820
H538        H  0.80066664  0.20862778  0.00062281     0.08870
H539        H  0.75940320  0.33061026  0.98370916     0.06400
H540        H  0.67531952  0.23383069  0.97693869     0.06240
C541        C  0.62037275  0.33650815  0.01446710    -0.21150
C542        C  0.62220361  0.37153676  0.99148912    -0.09200
C543        C  0.65304441  0.37735449  0.96338484     0.29660
C544        C  0.68230739  0.34806729  0.95861039    -0.21150
C545        C  0.68123679  0.31335814  0.98237019    -0.09210
C546        C  0.65013400  0.30767917  0.01049142     0.29670
F547        F  0.64963191  0.27541564  0.03552394    -0.19730
H548        H  0.59671777  0.33223076  0.03645658     0.18030
H549        H  0.70610354  0.35266469  0.93685913     0.18040
F550        F  0.65452124  0.41106557  0.94038543    -0.19720
C551        C  0.37257609  0.66660501  0.06970507    -0.21150
C552        C  0.36122686  0.63449225  0.04428171    -0.09200
C553        C  0.32022576  0.62699417  0.03742983     0.29660
C554        C  0.29170360  0.65370554  0.05173946    -0.21150
C555        C  0.30322559  0.68952461  0.07184883    -0.09210
C556        C  0.34369789  0.69358115  0.08410961     0.29670
F557        F  0.35571231  0.72491455  0.10774295    -0.19730
H558        H  0.40385990  0.67132160  0.07775627     0.18030
H559        H  0.26097974  0.64796515  0.04265746     0.18040
F560        F  0.30750578  0.59552330  0.01428358    -0.19720
C561        C  0.69001593  0.65640793  0.04890404    -0.21150
C562        C  0.68943257  0.68912649  0.02257556    -0.09200
C563        C  0.65777450  0.69414253  0.99479114     0.29660
C564        C  0.62649343  0.66691385  0.99407083    -0.21150
C565        C  0.62731244  0.63403784  0.02000515    -0.09210
C566        C  0.65897197  0.62856484  0.04748834     0.29670
F567        F  0.65961810  0.59658683  0.07286126    -0.19730
H568        H  0.71456085  0.65239339  0.07010116     0.18030
H569        H  0.60243295  0.67056078  0.97221436     0.18040
F570        F  0.65799815  0.72430765  0.96723225    -0.19720
C571        C  0.34511063  0.31569283  0.92318125    -0.21150
C572        C  0.30499815  0.31900317  0.93597808    -0.09200
C573        C  0.29197363  0.35653679  0.95195434     0.29660
C574        C  0.31985217  0.38612413  0.96176895    -0.21150
C575        C  0.36085408  0.37904194  0.95635148    -0.09210
C576        C  0.37322879  0.34473676  0.93461299     0.29670
F577        F  0.41264714  0.33789892  0.92663025    -0.19730
H578        H  0.35571491  0.28843909  0.90863458     0.18030
H579        H  0.30944313  0.41319563  0.97684676     0.18040
F580        F  0.25342535  0.36354447  0.96318277    -0.19720
C581        C  0.69475374  0.52366570  0.84270574    -0.21150
C582        C  0.68507013  0.50460469  0.80576528    -0.09200
C583        C  0.64563424  0.49054112  0.80007452     0.29660
C584        C  0.61715180  0.49416665  0.83111540    -0.21150
C585        C  0.62758387  0.51064698  0.86917023    -0.09210
C586        C  0.66664162  0.52627672  0.87422254     0.29670
F587        F  0.67796304  0.54338824  0.90976623    -0.19730
H588        H  0.72519063  0.53410821  0.84813317     0.18030
H589        H  0.58727467  0.48210404  0.82596237     0.18040
F590        F  0.63547367  0.47067030  0.76562295    -0.19720
C591        C  0.32790897  0.53202047  0.86221996    -0.21150
C592        C  0.36646927  0.51501701  0.86009250    -0.09200
C593        C  0.37855044  0.49667143  0.82342594     0.29660
C594        C  0.35166241  0.49300360  0.79104081    -0.21150
C595        C  0.31249121  0.50798582  0.79403742    -0.09210
C596        C  0.30125931  0.52885174  0.82941770     0.29670
F597        F  0.26298383  0.54238874  0.83377496    -0.19730
H598        H  0.31790899  0.54656236  0.88972430     0.18030
H599        H  0.36036161  0.47547867  0.76483274     0.18040
F600        F  0.41526539  0.47915088  0.81982757    -0.19720
C601        C  0.31638892  0.48228842  0.13050154    -0.21150
C602        C  0.35669926  0.49254949  0.13822825    -0.09200
C603        C  0.36810100  0.50109840  0.17871051     0.29660
C604        C  0.33922976  0.50340713  0.20928640    -0.21150
C605        C  0.29856721  0.49681256  0.20065860    -0.09210
C606        C  0.28768034  0.48400297  0.16141026     0.29670
F607        F  0.24838147  0.47760149  0.15202114    -0.19730
H608        H  0.30667611  0.47469509  0.10018139     0.18030
H609        H  0.34819852  0.51415522  0.23890644     0.18040
F610        F  0.40668946  0.51040510  0.18861036    -0.19720
C611        C  0.64528075  0.53123526  0.20874961    -0.21150
C612        C  0.67062807  0.49814510  0.21589904    -0.09200
C613        C  0.66620709  0.46378268  0.19085927     0.29660
C614        C  0.63997640  0.46409682  0.15749820    -0.21150
C615        C  0.61677023  0.49823397  0.14891376    -0.09210
C616        C  0.61822610  0.53111138  0.17598414     0.29670
F617        F  0.59535902  0.56425901  0.16914518    -0.19730
H618        H  0.64895963  0.55857792  0.22637661     0.18030
H619        H  0.63845643  0.43797171  0.13782214     0.18040
F620        F  0.69087063  0.43162835  0.19597838    -0.19720
C621        C  0.87456486  0.65956451  0.03295589    -0.21150
C622        C  0.88106493  0.63897809  0.99645939    -0.09200
C623        C  0.86549184  0.65581185  0.96077482     0.29660
C624        C  0.84069335  0.69028190  0.96229548    -0.21150
C625        C  0.83172279  0.70928665  0.99930254    -0.09210
C626        C  0.85020270  0.69409419  0.03447863     0.29670
F627        F  0.84105692  0.71018084  0.07104840    -0.19730
H628        H  0.88758907  0.64818373  0.06065059     0.18030
H629        H  0.82595615  0.70026830  0.93493296     0.18040
F630        F  0.87349655  0.63839025  0.92457535    -0.19720
C631        C  0.87118436  0.33241768  0.03172081    -0.21150
C632        C  0.87905094  0.35791250  0.99886907    -0.09200
C633        C  0.86252300  0.34806737  0.96110338     0.29660
C634        C  0.83676155  0.31485174  0.95686003    -0.21150
C635        C  0.82577397  0.29129963  0.99038482    -0.09210
C636        C  0.84429653  0.29973118  0.02774358     0.29670
F637        F  0.83382323  0.27856900  0.06100122    -0.19730
H638        H  0.88455224  0.33887357  0.06087101     0.18030
H639        H  0.82221143  0.30975017  0.92796839     0.18040
F640        F  0.87058866  0.37118367  0.92843475    -0.19720
C641        C  0.12496842  0.67551568  0.01083737    -0.21150
C642        C  0.13852418  0.63854147  0.99443968    -0.09200
C643        C  0.17782858  0.63701430  0.97892666     0.29660
C644        C  0.20331311  0.67085876  0.98204991    -0.21150
C645        C  0.19051435  0.70662145  0.00130721    -0.09210
C646        C  0.15064434  0.70886088  0.01466443     0.29670
F647        F  0.13761093  0.74211690  0.03469178    -0.19730
H648        H  0.09487375  0.67808415  0.02299137     0.18030
H649        H  0.23433303  0.66798672  0.97254569     0.18040
F650        F  0.19206469  0.60263852  0.96190316    -0.19720
C651        C  0.17478361  0.35729808  0.03082172    -0.21150
C652        C  0.13879246  0.35712456  0.00854526    -0.09200
C653        C  0.12835482  0.32177948  0.98681432     0.29660
C654        C  0.15450247  0.28880985  0.98530013    -0.21150
C655        C  0.19160390  0.28987838  0.00544233    -0.09210
C656        C  0.20077430  0.32386555  0.02963528     0.29670
F657        F  0.23702519  0.32652993  0.04846746    -0.19730
H658        H  0.18326735  0.38364565  0.04830938     0.18030
H659        H  0.14747748  0.26390862  0.96519482     0.18040
F660        F  0.09417993  0.32014600  0.96426110    -0.19720
C661        C  0.88012295  0.44225983  0.83911372    -0.21150
C662        C  0.87312698  0.46867446  0.87155519    -0.09200
C663        C  0.83357884  0.48042368  0.88045080     0.29660
C664        C  0.80221594  0.46835120  0.85583732    -0.21150
C665        C  0.80925293  0.44528094  0.82087090    -0.09210
C666        C  0.84830182  0.43022734  0.81405329     0.29670
F667        F  0.85598253  0.40571762  0.78210191    -0.19730
H668        H  0.91015443  0.43120157  0.83302977     0.18030
H669        H  0.77293095  0.48076238  0.86249151     0.18040
F670        F  0.82517359  0.50566087  0.91170333    -0.19720
C671        C  0.18075542  0.45866985  0.88223276    -0.21150
C672        C  0.13989079  0.45698264  0.87219342    -0.09200
C673        C  0.12824841  0.43801816  0.83593246     0.29660
C674        C  0.15735107  0.42521115  0.80861134    -0.21150
C675        C  0.19817882  0.43479592  0.81503131    -0.09210
C676        C  0.20975446  0.44779943  0.85426415     0.29670
F677        F  0.24856331  0.45435917  0.86515631    -0.19730
H678        H  0.19066007  0.47101144  0.91092193     0.18030
H679        H  0.14730543  0.41195476  0.78043081     0.18040
F680        F  0.08891007  0.43375496  0.82568240    -0.19720
C681        C  0.16595486  0.56625432  0.12425854    -0.21150
C682        C  0.13396641  0.54065158  0.13453741    -0.09200
C683        C  0.12365220  0.53634232  0.17535592     0.29660
C684        C  0.14717969  0.55381654  0.20507556    -0.21150
C685        C  0.18315906  0.57393882  0.19532830    -0.09210
C686        C  0.19000828  0.58353186  0.15446956     0.29670
F687        F  0.22147534  0.60719971  0.14365611    -0.19730
H688        H  0.17265733  0.57245004  0.09294532     0.18030
H689        H  0.13921274  0.54689553  0.23583622     0.18040
F690        F  0.09216264  0.51309449  0.18711578    -0.19720
C691        C  0.84055157  0.48225818  0.12679369    -0.21150
C692        C  0.87457499  0.50671539  0.13096203    -0.09200
C693        C  0.87721487  0.53539864  0.16201546     0.29660
C694        C  0.84561361  0.53944430  0.18889977    -0.21150
C695        C  0.81176079  0.51443207  0.18520976    -0.09210
C696        C  0.80939295  0.48565494  0.15405402     0.29670
F697        F  0.77796035  0.45959275  0.15106523    -0.19730
H698        H  0.83857511  0.45989099  0.10291448     0.18030
H699        H  0.84767874  0.56169566  0.21285980     0.18040
F700        F  0.90976958  0.55994308  0.16570606    -0.19720
C701        C  0.53035972  0.35951567  0.79753598    -0.21150
C702        C  0.49758028  0.33470888  0.78698696    -0.09200
C703        C  0.46144256  0.33910508  0.80868662     0.29660
C704        C  0.45963348  0.36469344  0.84253961    -0.21150
C705        C  0.49379878  0.38618296  0.85532500    -0.09210
C706        C  0.52856902  0.38493194  0.83136715     0.29670
F707        F  0.56180849  0.40617182  0.84237455    -0.19730
H708        H  0.55888918  0.35581345  0.78226203     0.18030
H709        H  0.43188091  0.36693866  0.85931807     0.18040
F710        F  0.42941307  0.31514107  0.79994180    -0.19720
C711        C  0.47357296  0.66039421  0.80178023    -0.21150
C712        C  0.49802682  0.69485048  0.80107818    -0.09200
C713        C  0.52355548  0.70214699  0.83457371     0.29660
C714        C  0.52287274  0.67670273  0.86861385    -0.21150
C715        C  0.49682383  0.64333688  0.86987279    -0.09210
C716        C  0.47293356  0.63500655  0.83543476     0.29670
F717        F  0.44702641  0.60330685  0.83517562    -0.19730
H718        H  0.45228659  0.65497112  0.77750491     0.18030
H719        H  0.54243190  0.68323984  0.89402534     0.18040
F720        F  0.54693379  0.73569175  0.83553141    -0.19720
C721        C  0.46524769  0.64767382  0.21741410    -0.21150
C722        C  0.49246247  0.67995815  0.22083016    -0.09200
C723        C  0.52299699  0.68323974  0.19150826     0.29660
C724        C  0.52323566  0.65778872  0.15737729    -0.21150
C725        C  0.49391486  0.62762654  0.15250840    -0.09210
C726        C  0.46606842  0.62165551  0.18392175     0.29670
F727        F  0.43735595  0.59268986  0.18063808    -0.19730
H728        H  0.44064678  0.64517205  0.23860078     0.18030
H729        H  0.54575110  0.66227280  0.13429335     0.18040
F730        F  0.54958400  0.71429130  0.19337924    -0.19720
C731        C  0.46825581  0.30431925  0.16609280    -0.21150
C732        C  0.48919094  0.31415464  0.20200487    -0.09200
C733        C  0.50543794  0.35288115  0.20611853     0.29660
C734        C  0.50321708  0.38008180  0.17407379    -0.21150
C735        C  0.48516876  0.36924760  0.13684825    -0.09210
C736        C  0.46647069  0.33139577  0.13368455     0.29670
F737        F  0.44742825  0.32015476  0.09913290    -0.19730
H738        H  0.45635027  0.27416923  0.16188681     0.18030
H739        H  0.51766150  0.40915397  0.17780192     0.18040
F740        F  0.52705151  0.36296896  0.23951419    -0.19720
C741        C  0.67812428  0.12290219  0.96829838    -0.21150
C742        C  0.65204488  0.12336906  0.00167546    -0.09200
C743        C  0.66225426  0.14752512  0.03501883     0.29660
C744        C  0.69635820  0.17250874  0.03391702    -0.21150
C745        C  0.72002695  0.17550949  0.99880483    -0.09210
C746        C  0.71130875  0.14919655  0.96648513     0.29670
F747        F  0.73216577  0.15211823  0.93150846    -0.19730
H748        H  0.67146721  0.10367193  0.94260943     0.18030
H749        H  0.70140817  0.19332962  0.05872208     0.18040
F750        F  0.63859336  0.14794429  0.06819534    -0.19720
C751        C  0.34305070  0.79926184  0.98503940    -0.21150
C752        C  0.30462864  0.81068316  0.99867433    -0.09200
C753        C  0.29739722  0.85160881  0.00654022     0.29660
C754        C  0.32870802  0.87992585  0.00348697    -0.21150
C755        C  0.36820781  0.86797320  0.99331350    -0.09210
C756        C  0.37457368  0.82728410  0.98272691     0.29670
F757        F  0.41165757  0.81388094  0.97225852    -0.19730
H758        H  0.34959462  0.76770640  0.97970110     0.18030
H759        H  0.32242203  0.91093439  0.01155361     0.18040
F760        F  0.26112470  0.86361204  0.02087881    -0.19720
C761        C  0.66247954  0.84824622  0.96284581    -0.21150
C762        C  0.64993759  0.86886020  0.99767525    -0.09200
C763        C  0.67656846  0.87036972  0.03087910     0.29660
C764        C  0.71282320  0.84859823  0.03062367    -0.21150
C765        C  0.72375335  0.82464028  0.99725808    -0.09210
C766        C  0.69903121  0.82665545  0.96247501     0.29670
F767        F  0.70794960  0.80372940  0.92970482    -0.19730
H768        H  0.64378937  0.84853866  0.93601771     0.18030
H769        H  0.73019232  0.84685323  0.05827975     0.18040
F770        F  0.66660102  0.89168793  0.06445479    -0.19720
C771        C  0.30375131  0.15376443  0.00040019    -0.21150
C772        C  0.31231016  0.19380651  0.01080204    -0.09200
C773        C  0.35089847  0.20309123  0.02620606     0.29660
C774        C  0.38104969  0.17352120  0.02807640    -0.21150
C775        C  0.37339063  0.13387911  0.01498837    -0.09210
C776        C  0.33369412  0.12407211  0.00245909     0.29670
F777        F  0.32423236  0.08641865  0.98929409    -0.19730
H778        H  0.27472305  0.14606552  0.98749816     0.18030
H779        H  0.41080002  0.18203315  0.03851636     0.18040
F780        F  0.36026723  0.24162635  0.03653247    -0.19720
C781        C  0.54868278  0.13379270  0.84839799    -0.21150
C782        C  0.51940143  0.13732276  0.87847005    -0.09200
C783        C  0.49582213  0.17202438  0.88165271     0.29660
C784        C  0.50058386  0.20254891  0.85384713    -0.21150
C785        C  0.52908115  0.19876900  0.82290901    -0.09210
C786        C  0.55374976  0.16461145  0.82070572     0.29670
F787        F  0.58177488  0.16074191  0.79126465    -0.19730
H788        H  0.56743210  0.10717186  0.84639145     0.18030
H789        H  0.48048022  0.22819851  0.85519046     0.18040
F790        F  0.46675293  0.17531993  0.91017208    -0.19720
C791        C  0.47169138  0.85484649  0.79578281    -0.21150
C792        C  0.44304030  0.82479649  0.80460758    -0.09200
C793        C  0.42615624  0.82342304  0.84335263     0.29660
C794        C  0.44113588  0.84861312  0.87360035    -0.21150
C795        C  0.47246204  0.87558300  0.86516950    -0.09210
C796        C  0.48661743  0.87967586  0.82582662     0.29670
F797        F  0.51675721  0.90584966  0.81695740    -0.19730
H798        H  0.48568630  0.85685773  0.76648583     0.18030
H799        H  0.42862550  0.84687226  0.90362323     0.18040
F800        F  0.39731393  0.79598028  0.85246719    -0.19720
C801        C  0.48712727  0.82146453  0.12246559    -0.21150
C802        C  0.47596846  0.86165766  0.12693227    -0.09200
C803        C  0.44732798  0.87264625  0.15611461     0.29660
C804        C  0.43325056  0.84408491  0.18315239    -0.21150
C805        C  0.44841490  0.80470381  0.18202294    -0.09210
C806        C  0.47377079  0.79307691  0.14976861     0.29670
F807        F  0.48945466  0.75551079  0.14670443    -0.19730
H808        H  0.50813481  0.81241048  0.09920650     0.18030
H809        H  0.41313073  0.85350957  0.20703421     0.18040
F810        F  0.43361680  0.91106969  0.15905982    -0.19720
C811        C  0.49672298  0.13958250  0.16201831    -0.21150
C812        C  0.52941667  0.12215171  0.14271109    -0.09200
C813        C  0.56885440  0.13529741  0.15044441     0.29660
C814        C  0.57539414  0.16756958  0.17666146    -0.21150
C815        C  0.54238475  0.18593180  0.19492745    -0.09210
C816        C  0.50308615  0.17136424  0.18822938     0.29670
F817        F  0.47084506  0.18876115  0.20636505    -0.19730
H818        H  0.46631139  0.12936727  0.15581030     0.18030
H819        H  0.60564129  0.17848316  0.18226732     0.18040
F820        F  0.60056955  0.11726473  0.13217687    -0.19720
C821        C  0.30242012  0.97208619  0.15287658    -0.21150
C822        C  0.30238822  0.99414625  0.18907308    -0.09200
C823        C  0.33557148  0.01965609  0.19723952     0.29660
C824        C  0.36896884  0.02083088  0.17105600    -0.21150
C825        C  0.36963132  0.99720619  0.13574608    -0.09210
C826        C  0.33522388  0.97375129  0.12644677     0.29670
F827        F  0.33430004  0.95017249  0.09285396    -0.19730
H828        H  0.27824629  0.95101681  0.14655189     0.18030
H829        H  0.39446064  0.03981455  0.17862373     0.18040
F830        F  0.33720965  0.04071544  0.23241869    -0.19720
C831        C  0.67261786  0.98162897  0.80273924    -0.21150
C832        C  0.70856827  0.00186414  0.81323430    -0.09200
C833        C  0.71241043  0.01764193  0.85234755     0.29660
C834        C  0.68040362  0.01488611  0.87958802    -0.21150
C835        C  0.64329695  0.99729317  0.86820521    -0.09210
C836        C  0.64010801  0.97971488  0.82966842     0.29670
F837        F  0.60541916  0.96158459  0.81765155    -0.19730
H838        H  0.66847552  0.97036473  0.77226729     0.18030
H839        H  0.68402313  0.02854974  0.90912923     0.18040
F840        F  0.74581163  0.03878757  0.86302182    -0.19720
C841        C  0.34985043  0.96721585  0.85764903    -0.21150
C842        C  0.36241711  0.00250626  0.87775825    -0.09200
C843        C  0.33684011  0.03621177  0.87697808     0.29660
C844        C  0.30130839  0.03570105  0.85391835    -0.21150
C845        C  0.29012607  0.00156740  0.83102068    -0.09210
C846        C  0.31411343  0.96669783  0.83450927     0.29670
F847        F  0.30475806  0.93323674  0.81270579    -0.19730
H848        H  0.36802316  0.94020765  0.85940976     0.18030
H849        H  0.28444637  0.06343429  0.85079534     0.18040
F850        F  0.34728480  0.07044657  0.89705700    -0.19720
C851        C  0.46324155  0.15594225  0.34531815    -0.21150
C852        C  0.49547952  0.14621075  0.37097372    -0.09200
C853        C  0.52851508  0.17247315  0.37315246     0.29660
C854        C  0.52998020  0.20721239  0.34969236    -0.21150
C855        C  0.49965287  0.21542033  0.32129772    -0.09210
C856        C  0.46543510  0.19013412  0.32031731     0.29670
F857        F  0.43601321  0.19636079  0.29256813    -0.19730
H858        H  0.43697269  0.13663318  0.34393246     0.18030
H859        H  0.55742580  0.22489815  0.34981414     0.18040
F860        F  0.56109962  0.16247699  0.39556340    -0.19720
C861        C  0.48821096  0.83094886  0.38327273    -0.21150
C862        C  0.50628114  0.86812484  0.37314592    -0.09200
C863        C  0.52487972  0.87129062  0.33526842     0.29660
C864        C  0.52301062  0.83913440  0.30756311    -0.21150
C865        C  0.50190612  0.80330566  0.31644643    -0.09210
C866        C  0.48571318  0.79908146  0.35522456     0.29670
F867        F  0.46421520  0.76567387  0.36471160    -0.19730
H868        H  0.47386605  0.82725055  0.41230108     0.18030
H869        H  0.53525866  0.84345497  0.27765382     0.18040
F870        F  0.54391088  0.90577830  0.32448750    -0.19720
C871        C  0.46079111  0.15600728  0.65808257    -0.21150
C872        C  0.49256786  0.15010867  0.63105076    -0.09200
C873        C  0.52278447  0.17979253  0.62841740     0.29660
C874        C  0.52282955  0.21306478  0.65464889    -0.21150
C875        C  0.49242493  0.21780088  0.68352905    -0.09210
C876        C  0.46047354  0.18972021  0.68385074     0.29670
F877        F  0.43110476  0.19282815  0.71202501    -0.19730
H878        H  0.43658356  0.13421516  0.65967661     0.18030
H879        H  0.54851551  0.23320681  0.65481500     0.18040
F880        F  0.55374247  0.17518837  0.60218193    -0.19720
C881        C  0.52672329  0.86464947  0.66668788    -0.21150
C882        C  0.50141667  0.86745794  0.63275777    -0.09200
C883        C  0.47673167  0.83397696  0.62317866     0.29660
C884        C  0.47522447  0.80020770  0.64840284    -0.21150
C885        C  0.49846086  0.79833335  0.68377864    -0.09210
C886        C  0.52564351  0.83028435  0.69165179     0.29670
F887        F  0.54848631  0.82987485  0.72566325    -0.19730
H888        H  0.54692159  0.88922899  0.67417662     0.18030
H889        H  0.45297214  0.77705671  0.64227687     0.18040
F890        F  0.45171912  0.83502087  0.59070766    -0.19720
C891        C  0.31705359  0.92303941  0.35057168    -0.21150
C892        C  0.32318491  0.93383982  0.31000118    -0.09200
C893        C  0.35943333  0.95388611  0.30001388     0.29660
C894        C  0.38400614  0.96912856  0.33013583    -0.21150
C895        C  0.37401701  0.96418565  0.37070831    -0.09210
C896        C  0.34172066  0.93889458  0.38091625     0.29670
F897        F  0.33337669  0.93029107  0.41998883    -0.19730
H898        H  0.29089932  0.90564894  0.35919571     0.18030
H899        H  0.41000799  0.98673394  0.32139084     0.18040
F900        F  0.36964028  0.96314526  0.26161370    -0.19720
C901        C  0.66076326  0.06485355  0.62694855    -0.21150
C902        C  0.62786736  0.04095213  0.63836483    -0.09200
C903        C  0.62112825  0.03345502  0.67929619     0.29660
C904        C  0.64919480  0.04593215  0.70770353    -0.21150
C905        C  0.68480333  0.06588115  0.69594945    -0.09210
C906        C  0.68834824  0.07847105  0.65567798     0.29670
F907        F  0.71996260  0.10131135  0.64359748    -0.19730
H908        H  0.66564128  0.07224256  0.59561640     0.18030
H909        H  0.64451302  0.03593962  0.73829677     0.18040
F910        F  0.58915784  0.01128246  0.69173865    -0.19720
C911        C  0.37181718  0.05057484  0.66452424    -0.21150
C912        C  0.36573263  0.02147092  0.63434427    -0.09200
C913        C  0.32971476  0.99989531  0.63185959     0.29660
C914        C  0.30030616  0.00656995  0.66033338    -0.21150
C915        C  0.30639218  0.03516235  0.69121724    -0.09210
C916        C  0.34205281  0.05767670  0.69286974     0.29670
F917        F  0.34837871  0.08552544  0.72236336    -0.19730
H918        H  0.39953346  0.06774592  0.66600702     0.18030
H919        H  0.27360626  0.98779768  0.65941831     0.18040
F920        F  0.32387106  0.97103699  0.60319979    -0.19720
C921        C  0.69073170  0.96156229  0.18272221    -0.21150
C922        C  0.71940006  0.99275073  0.17926018    -0.09200
C923        C  0.71541218  0.02010414  0.14736801     0.29660
C924        C  0.68205464  0.01802080  0.12150703    -0.21150
C925        C  0.65144193  0.98927524  0.12746037    -0.09210
C926        C  0.65673767  0.96010211  0.15745075     0.29670
F927        F  0.62870490  0.93089490  0.16293105    -0.19730
H928        H  0.69248017  0.94088594  0.20784350     0.18030
H929        H  0.67896028  0.04046341  0.09807774     0.18040
F930        F  0.74133519  0.05155692  0.14410558    -0.19720
C931        C  0.62810440  0.00360681  0.33723389    -0.21150
C932        C  0.63169640  0.02658943  0.37243435    -0.09200
C933        C  0.66331711  0.05434050  0.37704119     0.29660
C934        C  0.69164926  0.05835506  0.34649931    -0.21150
C935        C  0.68864127  0.03441796  0.31164752    -0.09210
C936        C  0.65654372  0.00694945  0.30724266     0.29670
F937        F  0.65413039  0.98112807  0.27539171    -0.19730
H938        H  0.60406221  0.98174475  0.33365456     0.18030
H939        H  0.71650466  0.07917838  0.35044215     0.18040
F940        F  0.66664863  0.07746992  0.41079239    -0.19720
C941        C  0.30374431  0.83721188  0.51742729    -0.21150
C942        C  0.31533164  0.80072880  0.49888450    -0.09200
C943        C  0.35543340  0.79662097  0.48646774     0.29660
C944        C  0.38255371  0.82893476  0.49049744    -0.21150
C945        C  0.37014814  0.86666082  0.50598908    -0.09210
C946        C  0.33051832  0.86997221  0.52054149     0.29670
F947        F  0.31710183  0.90518468  0.53650052    -0.19730
H948        H  0.27274450  0.84148108  0.52645200     0.18030
H949        H  0.41282929  0.82502875  0.47918005     0.18040
F950        F  0.36748981  0.76246869  0.46737659    -0.19720
C951        C  0.69424475  0.84025090  0.48681622    -0.21150
C952        C  0.68449949  0.80620426  0.51011186    -0.09200
C953        C  0.64718885  0.80511879  0.52956177     0.29660
C954        C  0.62104694  0.83805246  0.52724289    -0.21150
C955        C  0.63182383  0.87333940  0.50626192    -0.09210
C956        C  0.66841065  0.87373675  0.48517696     0.29670
F957        F  0.67937867  0.90645873  0.46343262    -0.19730
H958        H  0.72333963  0.84207322  0.47231541     0.18030
H959        H  0.59284340  0.83658181  0.54345344     0.18040
F960        F  0.63734937  0.77339663  0.55325717    -0.19720
C961        C  0.64476390  0.22174527  0.49288051    -0.21150
C962        C  0.67483942  0.22154089  0.52257365    -0.09200
C963        C  0.67361631  0.19103017  0.55214539     0.29660
C964        C  0.64768170  0.15794865  0.54765036    -0.21150
C965        C  0.62078451  0.15581274  0.51512082    -0.09210
C966        C  0.61735511  0.18967867  0.48978786     0.29670
F967        F  0.58912356  0.19072364  0.46037192    -0.19730
H968        H  0.64503534  0.24453821  0.46961617     0.18030
H969        H  0.64909196  0.13372449  0.56920009     0.18040
F970        F  0.70192264  0.19013598  0.58176449    -0.19720
C971        C  0.34295373  0.15941113  0.53245136    -0.21150
C972        C  0.36771724  0.14965328  0.49961843    -0.09200
C973        C  0.37233251  0.17860088  0.46893808     0.29660
C974        C  0.34984307  0.21444173  0.46919439    -0.21150
C975        C  0.32242686  0.22290505  0.50030640    -0.09210
C976        C  0.32091240  0.19573311  0.53304777     0.29670
F977        F  0.29444502  0.20218807  0.56347244    -0.19730
H978        H  0.34050481  0.13882528  0.55756452     0.18030
H979        H  0.35086449  0.23373104  0.44296089     0.18040
F980        F  0.39752695  0.17133776  0.43758959    -0.19720
C981        C  0.82997265  0.97682452  0.62840057    -0.21150
C982        C  0.86941767  0.99022034  0.63595258    -0.09200
C983        C  0.87922611  0.00326133  0.67559977     0.29660
C984        C  0.84958927  0.00588826  0.70550504    -0.21150
C985        C  0.80969259  0.99523588  0.69700745    -0.09210
C986        C  0.80051561  0.97901167  0.65858613     0.29670
F987        F  0.76206887  0.96856144  0.64925313    -0.19730
H988        H  0.82155978  0.96578714  0.59873729     0.18030
H989        H  0.85719475  0.01938761  0.73437445     0.18040
F990        F  0.91687328  0.01620903  0.68503595    -0.19720
C991        C  0.15497737  0.96373725  0.65890603    -0.21150
C992        C  0.12777606  0.99501889  0.65084187    -0.09200
C993        C  0.12192719  0.02470634  0.68089204     0.29660
C994        C  0.14536948  0.02511159  0.71625721    -0.21150
C995        C  0.17509196  0.99578538  0.72297980    -0.09210
C996        C  0.17798767  0.96378496  0.69475624     0.29670
F997        F  0.20664888  0.93511808  0.69963185    -0.19730
H998        H  0.15886356  0.93958015  0.63718519     0.18030
H999        H  0.14329788  0.05085937  0.73636612     0.18040
F1000       F  0.09524944  0.05504354  0.67480012    -0.19720
C1001       C  0.20861048  0.01963903  0.34364979    -0.21150
C1002       C  0.19912052  0.00343328  0.30528189    -0.09200
C1003       C  0.15929478  0.99139614  0.29788786     0.29660
C1004       C  0.13066230  0.99255769  0.32892748    -0.21150
C1005       C  0.14102926  0.00523113  0.36843299    -0.09210
C1006       C  0.18011735  0.02036766  0.37493575     0.29670
F1007       F  0.19136084  0.03446907  0.41179450    -0.19730
H1008       H  0.23934326  0.02833281  0.35044557     0.18030
H1009       H  0.10077351  0.98115115  0.32244060     0.18040
F1010       F  0.14909028  0.97456233  0.26187021    -0.19720
C1011       C  0.88044219  0.02348978  0.33256900    -0.21150
C1012       C  0.88008278  0.98984342  0.35803293    -0.09200
C1013       C  0.85496254  0.95712697  0.34830990     0.29660
C1014       C  0.82847381  0.95952356  0.31525764    -0.21150
C1015       C  0.82671136  0.99455162  0.29153696    -0.09210
C1016       C  0.85382052  0.02608826  0.29991536     0.29670
F1017       F  0.85148292  0.06117851  0.27916487    -0.19730
H1018       H  0.89999933  0.04876956  0.33930191     0.18030
H1019       H  0.80695804  0.93545071  0.31022752     0.18040
F1020       F  0.85544736  0.92336467  0.37119906    -0.19720
C1021       C  0.12877733  0.83514428  0.44806019    -0.21150
C1022       C  0.14092966  0.86733625  0.47286129    -0.09200
C1023       C  0.18193064  0.87713823  0.47519233     0.29660
C1024       C  0.21015538  0.85282681  0.45631606    -0.21150
C1025       C  0.19849673  0.81738088  0.43547113    -0.09210
C1026       C  0.15706478  0.81134575  0.42820947     0.29670
F1027       F  0.14372232  0.78156442  0.40331918    -0.19730
H1028       H  0.09720773  0.82851122  0.44384535     0.18030
H1029       H  0.24134430  0.86050075  0.46137057     0.18040
F1030       F  0.19517209  0.90918864  0.49719009    -0.19720
C1031       C  0.83336859  0.87589369  0.52522578    -0.21150
C1032       C  0.87337846  0.86315352  0.52871715    -0.09200
C1033       C  0.88219251  0.82968408  0.55290842     0.29660
C1034       C  0.85103036  0.80811338  0.57094531    -0.21150
C1035       C  0.81046125  0.81811506  0.56330716    -0.09210
C1036       C  0.80243771  0.85448094  0.54272579     0.29670
F1037       F  0.76472724  0.86862763  0.53643692    -0.19730
H1038       H  0.82553828  0.90263233  0.50832178     0.18030
H1039       H  0.85867093  0.78172629  0.58840129     0.18040
F1040       F  0.92066387  0.81746100  0.55882576    -0.19720
C1041       C  0.84281094  0.18393086  0.46443816    -0.21150
C1042       C  0.80980774  0.18087697  0.49042770    -0.09200
C1043       C  0.80592297  0.14741738  0.51603159     0.29660
C1044       C  0.83520403  0.11790013  0.51599861    -0.21150
C1045       C  0.86900433  0.12208783  0.49151667    -0.09210
C1046       C  0.87266588  0.15482606  0.46527098     0.29670
F1047       F  0.90504430  0.15863172  0.44071427    -0.19730
H1048       H  0.84594553  0.20939873  0.44437887     0.18030
H1049       H  0.83249974  0.09275954  0.53655817     0.18040
F1050       F  0.77541526  0.14450654  0.54300356    -0.19720
C1051       C  0.17293068  0.12493790  0.50382253    -0.21150
C1052       C  0.13351691  0.12934860  0.49004425    -0.09200
C1053       C  0.12255408  0.16304629  0.46694967     0.29660
C1054       C  0.15111680  0.19167065  0.45730533    -0.21150
C1055       C  0.19013400  0.18840460  0.47273402    -0.09210
C1056       C  0.20095340  0.15464882  0.49616878     0.29670
F1057       F  0.23748506  0.15154799  0.51432793    -0.19730
H1058       H  0.18161178  0.09934944  0.52205173     0.18030
H1059       H  0.14221293  0.21748320  0.43952472     0.18040
F1060       F  0.08414614  0.16886162  0.45434555    -0.19720
C1061       C  0.03028241  0.67114525  0.19111507    -0.21150
C1062       C  0.00649144  0.70514144  0.18238204    -0.09200
C1063       C  0.98857113  0.70790029  0.14410695     0.29660
C1064       C  0.99200576  0.67603854  0.11637558    -0.21150
C1065       C  0.01261472  0.64039767  0.12659097    -0.09210
C1066       C  0.03307787  0.63891068  0.16372457     0.29670
F1067       F  0.05462265  0.60583851  0.17412947    -0.19730
H1068       H  0.04356159  0.66793385  0.22082221     0.18030
H1069       H  0.97623210  0.67819708  0.08781090     0.18040
F1070       F  0.96426370  0.73947284  0.13517049    -0.19720
C1071       C  0.02569293  0.80779037  0.31982439    -0.21150
C1072       C  0.99799145  0.81716520  0.28896062    -0.09200
C1073       C  0.97512768  0.85247798  0.29279058     0.29660
C1074       C  0.97845297  0.87655778  0.32747514    -0.21150
C1075       C  0.00379670  0.86550766  0.35977025    -0.09210
C1076       C  0.02818576  0.83131845  0.35514703     0.29670
F1077       F  0.05394407  0.82029934  0.38479375    -0.19730
H1078       H  0.04282832  0.78009532  0.31813349     0.18030
H1079       H  0.95976142  0.90318773  0.32987266     0.18040
F1080       F  0.94696477  0.86169048  0.26456805    -0.19720
C1081       C  0.03842576  0.34513231  0.84762029    -0.21150
C1082       C  0.00937366  0.35051221  0.87768395    -0.09200
C1083       C  0.97989262  0.32040308  0.88278193     0.29660
C1084       C  0.97715700  0.28789211  0.85565280    -0.21150
C1085       C  0.00416162  0.28428698  0.82337844    -0.09210
C1086       C  0.03615884  0.31219010  0.82095034     0.29670
F1087       F  0.06229066  0.31029242  0.78962953    -0.19730
H1088       H  0.06233297  0.36689691  0.84417952     0.18030
H1089       H  0.95151833  0.26779579  0.85746690     0.18040
F1090       F  0.95171727  0.32413290  0.91209978    -0.19720
C1091       C  0.96329796  0.15006126  0.70183047    -0.21150
C1092       C  0.99386895  0.17848881  0.70901757    -0.09200
C1093       C  0.02721690  0.17899132  0.68279427     0.29660
C1094       C  0.02872663  0.15312440  0.64906017    -0.21150
C1095       C  0.99719642  0.12602887  0.64104377    -0.09210
C1096       C  0.96506731  0.12387146  0.66852888     0.29670
F1097       F  0.93410519  0.09796110  0.66177885    -0.19730
H1098       H  0.93650706  0.15022949  0.72034133     0.18030
H1099       H  0.05430905  0.15453179  0.62897479     0.18040
F1100       F  0.05666526  0.20694922  0.68795157    -0.19720
C1101       C  0.04233648  0.69890308  0.85308284    -0.21150
C1102       C  0.01544325  0.70519412  0.82108674    -0.09200
C1103       C  0.98457581  0.67651240  0.81454062     0.29660
C1104       C  0.98293854  0.64086786  0.83751031    -0.21150
C1105       C  0.01165471  0.63364558  0.86779878    -0.09210
C1106       C  0.04047456  0.66385813  0.87618634     0.29670
F1107       F  0.06821708  0.65863583  0.90588607    -0.19730
H1108       H  0.06707659  0.71968202  0.85800308     0.18030
H1109       H  0.95932433  0.61905482  0.83170265     0.18040
F1110       F  0.95767154  0.68173272  0.78413210    -0.19720
C1111       C  0.03222313  0.85197241  0.71186655    -0.21150
C1112       C  0.00894710  0.81672513  0.71331057    -0.09200
C1113       C  0.98186939  0.80888044  0.68128884     0.29660
C1114       C  0.98110770  0.83368728  0.64703192    -0.21150
C1115       C  0.00664853  0.86724976  0.64443069    -0.09210
C1116       C  0.03101271  0.87707285  0.67804461     0.29670
F1117       F  0.05592889  0.90952153  0.67701481    -0.19730
H1118       H  0.05436678  0.85794124  0.73522443     0.18030
H1119       H  0.96109564  0.82627332  0.62232669     0.18040
F1120       F  0.95940141  0.77469189  0.68128466    -0.19720
C1121       C  0.17418585  0.62808336  0.49366539    -0.21150
C1122       C  0.13468642  0.64096641  0.50286772    -0.09200
C1123       C  0.12910805  0.68176857  0.51325061     0.29660
C1124       C  0.16153791  0.70895801  0.51199429    -0.21150
C1125       C  0.20019986  0.69656194  0.49963968    -0.09210
C1126       C  0.20638816  0.65550888  0.49163044     0.29670
F1127       F  0.24270673  0.64251378  0.47830860    -0.19730
H1128       H  0.17993927  0.59689803  0.48589373     0.18030
H1129       H  0.15567458  0.74067125  0.51720330     0.18040
F1130       F  0.09212674  0.69589930  0.52308829    -0.19720
C1131       C  0.81179933  0.33587595  0.47193704    -0.21150
C1132       C  0.79037535  0.32554770  0.50702827    -0.09200
C1133       C  0.80054512  0.34496476  0.54348567     0.29660
C1134       C  0.83320729  0.37201659  0.54501623    -0.21150
C1135       C  0.85688230  0.37881753  0.51059107    -0.09210
C1136       C  0.84515653  0.36146275  0.47381630     0.29670
F1137       F  0.86665234  0.36847794  0.43985055    -0.19730
H1138       H  0.80508410  0.32075906  0.44363648     0.18030
H1139       H  0.84097838  0.38649650  0.57335903     0.18040
F1140       F  0.78104319  0.33541092  0.57802436    -0.19720
C1141       C  0.15235919  0.36197222  0.54131314    -0.21150
C1142       C  0.13693270  0.38015301  0.50625550    -0.09200
C1143       C  0.15849414  0.37546559  0.47012464     0.29660
C1144       C  0.19299826  0.35111954  0.46852134    -0.21150
C1145       C  0.20715713  0.33055502  0.50282469    -0.09210
C1146       C  0.18694188  0.33725333  0.53962493     0.29670
F1147       F  0.19888581  0.31742574  0.57327549    -0.19730
H1148       H  0.13723179  0.36636263  0.56987012     0.18030
H1149       H  0.20666822  0.34535648  0.43944076     0.18040
F1150       F  0.14501693  0.39305767  0.43575682    -0.19720
C1151       C  0.86020125  0.67730866  0.47780597    -0.21150
C1152       C  0.85544044  0.63954099  0.49602870    -0.09200
C1153       C  0.81714281  0.62928050  0.51152836     0.29660
C1154       C  0.78596093  0.65757009  0.51224130    -0.21150
C1155       C  0.79194944  0.69647627  0.49739683    -0.09210
C1156       C  0.82866557  0.70537471  0.47806665     0.29670
F1157       F  0.83566839  0.74307419  0.46400330    -0.19730
H1158       H  0.88880961  0.68571085  0.46473923     0.18030
H1159       H  0.75855218  0.65042394  0.52830182     0.18040
F1160       F  0.81063228  0.59309799  0.52929437    -0.19720
C1161       C  0.12740451  0.48728410  0.33243837    -0.21150
C1162       C  0.13108897  0.50516004  0.37080535    -0.09200
C1163       C  0.16834590  0.52333567  0.38125597     0.29660
C1164       C  0.19972323  0.52567994  0.35328122    -0.21150
C1165       C  0.19538773  0.50943241  0.31448691    -0.09210
C1166       C  0.15929068  0.48911400  0.30466217     0.29670
F1167       F  0.15378456  0.47370549  0.26703506    -0.19730
H1168       H  0.09958617  0.47258696  0.32364591     0.18030
H1169       H  0.22653034  0.54269296  0.36104083     0.18040
F1170       F  0.17376622  0.54143434  0.41770080    -0.19720
C1171       C  0.79591347  0.46971412  0.34229127    -0.21150
C1172       C  0.78141148  0.50672655  0.32769962    -0.09200
C1173       C  0.79969361  0.54241467  0.34222171     0.29660
C1174       C  0.83372497  0.54088506  0.36738170    -0.21150
C1175       C  0.85007818  0.50383558  0.37920386    -0.09210
C1176       C  0.82947416  0.46828621  0.36833379     0.29670
F1177       F  0.84253070  0.43211015  0.38183158    -0.19730
H1178       H  0.78333456  0.44174762  0.33087628     0.18030
H1179       H  0.84801587  0.56876328  0.37683622     0.18040
F1180       F  0.78741740  0.57871876  0.32812203    -0.19720
C1181       C  0.15982606  0.52888600  0.70317481    -0.21150
C1182       C  0.19723706  0.51213313  0.69260881    -0.09200
C1183       C  0.20396063  0.50120210  0.65230820     0.29660
C1184       C  0.17284233  0.50416573  0.62384394    -0.21150
C1185       C  0.13418061  0.51757122  0.63512107    -0.09210
C1186       C  0.12852725  0.53153472  0.67487204     0.29670
F1187       F  0.09240847  0.54624910  0.68691622    -0.19730
H1188       H  0.15381955  0.53679268  0.73432596     0.18030
H1189       H  0.17843727  0.49355792  0.59343286     0.18040
F1190       F  0.23927974  0.48389090  0.64137845    -0.19720
C1191       C  0.81913422  0.50596768  0.62912877    -0.21150
C1192       C  0.85775008  0.52079439  0.63945954    -0.09200
C1193       C  0.86373055  0.53576430  0.67881896     0.29660
C1194       C  0.83291380  0.53300629  0.70756388    -0.21150
C1195       C  0.79571484  0.51460138  0.69812533    -0.09210
C1196       C  0.78864095  0.50253924  0.65812359     0.29670
F1197       F  0.75377001  0.48360486  0.64805512    -0.19730
H1198       H  0.81318971  0.49444570  0.59906521     0.18030
H1199       H  0.83944479  0.54172559  0.73844825     0.18040
F1200       F  0.89981114  0.55142943  0.69014163    -0.19720
C1201       C  0.94354718  0.62574096  0.33757050    -0.21150
C1202       C  0.97271476  0.63509623  0.36697293    -0.09200
C1203       C  0.98894002  0.67389537  0.36926076     0.29660
C1204       C  0.97711059  0.70260799  0.34170868    -0.21150
C1205       C  0.94910208  0.69326304  0.31103302    -0.09210
C1206       C  0.93167078  0.65473131  0.30967863     0.29670
F1207       F  0.90434796  0.64488264  0.28071989    -0.19730
H1208       H  0.92989925  0.59608455  0.33633347     0.18030
H1209       H  0.99211594  0.73150605  0.34299361     0.18040
F1210       F  0.01763547  0.68358198  0.39697761    -0.19720
C1211       C  0.99611425  0.31301848  0.66269641    -0.21150
C1212       C  0.96466528  0.31653989  0.69063598    -0.09200
C1213       C  0.94375645  0.35306990  0.69445823     0.29660
C1214       C  0.95417008  0.38552198  0.67011118    -0.21150
C1215       C  0.98536152  0.38145912  0.64202500    -0.09210
C1216       C  0.00640055  0.34513681  0.63855392     0.29670
F1217       F  0.03706061  0.34084733  0.61188625    -0.19730
H1218       H  0.01385733  0.28572401  0.66055203     0.18030
H1219       H  0.93715521  0.41327441  0.67222236     0.18040
F1220       F  0.91363817  0.35723918  0.72168857    -0.19720
C1221       C  0.02131248  0.66565094  0.70056316    -0.21150
C1222       C  0.05480356  0.69055890  0.69302918    -0.09200
C1223       C  0.07066563  0.69231514  0.65390642     0.29660
C1224       C  0.05276531  0.66991861  0.62299975    -0.21150
C1225       C  0.01901992  0.64583284  0.63099907    -0.09210
C1226       C  0.00341763  0.64379041  0.66991566     0.29670
F1227       F  0.97076647  0.62061908  0.67822999    -0.19730
H1228       H  0.00747166  0.66442021  0.72992216     0.18030
H1229       H  0.06595125  0.67031158  0.59320336     0.18040
F1230       F  0.10277135  0.71614932  0.64562259    -0.19720
C1231       C  0.98163010  0.29511080  0.15625336    -0.21150
C1232       C  0.00861045  0.29287047  0.18879167    -0.09200
C1233       C  0.03755295  0.32390463  0.19318472     0.29660
C1234       C  0.03760269  0.35744904  0.16728349    -0.21150
C1235       C  0.00922949  0.36048184  0.13599343    -0.09210
C1236       C  0.98209846  0.32815896  0.12999801     0.29670
F1237       F  0.95427003  0.32966051  0.09997818    -0.19730
H1238       H  0.95796658  0.27281560  0.15308940     0.18030
H1239       H  0.05956913  0.38118209  0.17189767     0.18040
F1240       F  0.06348881  0.32341860  0.22489869    -0.19720
C1241       C  0.97772100  0.11930901  0.33044280    -0.21150
C1242       C  0.00798313  0.12273391  0.36008423    -0.09200
C1243       C  0.03916029  0.15062450  0.35366945     0.29660
C1244       C  0.03785516  0.17695453  0.32050498    -0.21150
C1245       C  0.00555534  0.17597505  0.29279979    -0.09210
C1246       C  0.97624129  0.14571820  0.29746424     0.29670
F1247       F  0.94386456  0.14446023  0.27240989    -0.19730
H1248       H  0.95402126  0.09721970  0.33385982     0.18030
H1249       H  0.06029327  0.20055824  0.31843514     0.18040
F1250       F  0.07083163  0.15255006  0.37937997    -0.19720
C1251       C  0.93603524  0.33483074  0.33168661    -0.21150
C1252       C  0.96779640  0.30849571  0.32391669    -0.09200
C1253       C  0.00482322  0.31273263  0.34418934     0.29660
C1254       C  0.00977560  0.34289288  0.37263945    -0.21150
C1255       C  0.97829915  0.36949180  0.38005022    -0.09210
C1256       C  0.94133522  0.36553392  0.35989518     0.29670
F1257       F  0.91076520  0.39141232  0.36748163    -0.19730
H1258       H  0.90785650  0.33210055  0.31536400     0.18030
H1259       H  0.03848836  0.34639218  0.38789832     0.18040
F1260       F  0.03675683  0.28900646  0.33475728    -0.19720
loop_ 
_geom_bond_atom_site_label_1 
_geom_bond_atom_site_label_2 
_geom_bond_distance 
_geom_bond_site_symmetry_2 
_ccdc_geom_bond_type 
C1            C2   1.394       .  A
C1            C6   1.430   1_655  A
C1         C1232   1.490   1_655  S
C2            C3   1.383       .  A
C2            H7   1.086       .  S
C3            C4   1.383       .  A
C3         C1252   1.445       .  S
C4            C5   1.394       .  A
C4            H8   1.087       .  S
C5            C6   1.430   1_655  A
C5         C1245   1.489   1_655  S
C6            H9   1.082       .  S
O10          C21   1.284       .  A
O10         Eu46   2.415       .  S
O11          C22   1.288       .  A
O11         Eu45   2.427       .  S
O12          C23   1.303       .  A
O12         Eu18   2.532       .  S
O13          C24   1.303       .  A
O13         Eu18   2.526   1_455  S
O14          C24   1.285       .  A
O14         Eu48   2.428       .  S
O15          C23   1.284       .  A
O15         Eu47   2.429       .  S
O16          C22   1.287       .  A
O16         Eu18   2.430       .  S
O17          C21   1.285       .  A
O17         Eu18   2.424       .  S
Eu18         O28   2.365   1_655  S
Eu18         O20   2.347       .  S
Eu18         O19   2.370   1_655  S
Eu18         O26   2.348       .  S
O19         Eu48   2.360       .  S
O19         Eu45   2.362   1_455  S
O20         Eu46   2.352       .  S
O20         Eu47   2.346       .  S
C21        C1255   1.435       .  S
C22        C1202   1.453       .  S
C23        C1175   1.486       .  S
C24        C1162   1.498       .  S
H25          O26   0.965       .  S
O26         Eu47   2.335       .  S
O26         Eu45   2.350       .  S
H27          O28   0.966       .  S
O28         Eu46   2.352   1_455  S
O28         Eu48   2.351       .  S
O29          C52   1.287       .  A
O29         Eu45   2.432   1_455  S
O30          C53   1.285       .  A
O30         Eu46   2.407       .  S
O31          C54   1.284       .  A
O31         Eu47   2.422       .  S
O32          C55   1.288       .  A
O32         Eu48   2.441       .  S
O33          C56   1.285       .  A
O33         Eu48   2.433       .  S
O34          C57   1.283       .  A
O34         Eu47   2.424       .  S
O35          C58   1.299       .  A
O35         Eu49   2.510       .  S
O36          C59   1.298       .  A
O36         Eu49   2.492   1_455  S
O37          C58   1.286       .  A
O37         Eu47   2.436       .  S
O38          C59   1.289       .  A
O38         Eu48   2.446       .  S
O39          C54   1.301       .  A
O39         Eu45   2.512       .  S
O40          C57   1.301       .  A
O40         Eu46   2.514       .  S
O41          C56   1.304       .  A
O41         Eu46   2.540   1_455  S
O42          C55   1.302       .  A
O42         Eu45   2.520   1_455  S
O43          C52   1.285       .  A
O43         Eu49   2.411   1_455  S
O44          C53   1.289       .  A
O44         Eu49   2.442       .  S
Eu45         O63   2.343   1_655  S
Eu45         O51   2.370       .  S
Eu46         O50   2.347   1_655  S
Eu46         O61   2.363       .  S
Eu47         O61   2.334       .  S
Eu47         O51   2.350       .  S
Eu48         O50   2.352       .  S
Eu48         O63   2.326       .  S
Eu49         O50   2.365   1_655  S
Eu49         O61   2.340       .  S
Eu49         O63   2.351   1_655  S
Eu49         O51   2.358       .  S
C52        C1225   1.444       .  S
C53        C1215   1.447       .  S
C54        C1152   1.491       .  S
C55        C1122   1.503       .  S
C56        C1142   1.493       .  S
C57        C1135   1.475       .  S
C58        C1192   1.499       .  S
C59        C1185   1.492       .  S
H60          O61   0.965       .  S
H62          O63   0.964       .  S
C64          C65   1.400       .  A
C64          C69   1.424       .  A
C64        C1102   1.486       .  S
C65          C66   1.390       .  A
C65          H70   1.086       .  S
C66          C67   1.387       .  A
C66        C1222   1.469       .  S
C67          C68   1.397       .  A
C67          H71   1.086       .  S
C68          C69   1.423       .  A
C68        C1112   1.482       .  S
C69          H72   1.082   1_455  S
C73          C74   1.423       .  A
C73          C78   1.395       .  A
C73        C1085   1.483   1_655  S
C74          C75   1.424       .  A
C74          H79   1.082   1_655  S
C75          C76   1.396       .  A
C75        C1092   1.485       .  S
C76          C77   1.390       .  A
C76          H80   1.086       .  S
C77          C78   1.385       .  A
C77        C1212   1.460       .  S
C78          H81   1.086       .  S
C82          C83   1.398       .  A
C82          C87   1.420   1_655  A
C82        C1062   1.483   1_655  S
C83          C84   1.391       .  A
C83          H88   1.085       .  S
C84          C85   1.391       .  A
C84        C1205   1.471       .  S
C85          C86   1.398       .  A
C85          H89   1.086       .  S
C86          C87   1.420   1_655  A
C86        C1072   1.483       .  S
C87          H90   1.083       .  S
O91         C102   1.304       .  A
O91        Eu127   2.540       .  S
O92         C103   1.305       .  A
O92        Eu126   2.538       .  S
O93         C104   1.287   1_565  A
O93         Eu99   2.438       .  S
O94         C105   1.283       .  A
O94         Eu99   2.426   1_655  S
O95         C105   1.299       .  A
O95        Eu129   2.507       .  S
O96         C104   1.302       .  A
O96        Eu128   2.523   1_545  S
O97         C103   1.282       .  A
O97         Eu99   2.409       .  S
O98         C102   1.284       .  A
O98         Eu99   2.431   1_545  S
Eu99        O109   2.330   1_465  S
Eu99        O101   2.331   1_565  S
Eu99        O100   2.358   1_455  S
Eu99        O107   2.332       .  S
O100       Eu129   2.355       .  S
O100       Eu126   2.369   1_655  S
O101       Eu127   2.340       .  S
O101       Eu128   2.355   1_545  S
C102       C1242   1.495       .  S
C103       C1075   1.489       .  S
C104       C1005   1.502       .  S
C105       C1012   1.478       .  S
H106        O107   0.964       .  S
O107       Eu128   2.363       .  S
O107       Eu126   2.362       .  S
H108        O109   0.966       .  S
O109       Eu127   2.352   1_655  S
O109       Eu129   2.351   1_545  S
O110        C133   1.304       .  A
O110       Eu126   2.533       .  S
O111        C134   1.301   1_455  A
O111       Eu127   2.521       .  S
O112        C135   1.288       .  A
O112       Eu128   2.429       .  S
O113        C136   1.285       .  A
O113       Eu129   2.403       .  S
O114        C137   1.285       .  A
O114       Eu129   2.416   1_545  S
O115        C138   1.288       .  A
O115       Eu128   2.427   1_545  S
O116        C139   1.282       .  A
O116       Eu130   2.414       .  S
O117        C140   1.286       .  A
O117       Eu130   2.435   1_655  S
O118        C139   1.306       .  A
O118       Eu128   2.548       .  S
O119        C140   1.300       .  A
O119       Eu129   2.512       .  S
O120        C135   1.293       .  A
O120       Eu126   2.453       .  S
O121        C138   1.281       .  A
O121       Eu127   2.391       .  S
O122        C137   1.286       .  A
O122       Eu127   2.422   1_655  S
O123        C136   1.293       .  A
O123       Eu126   2.463   1_655  S
O124        C133   1.283       .  A
O124       Eu130   2.417       .  S
O125        C134   1.284       .  A
O125       Eu130   2.430   1_645  S
Eu126       O144   2.353   1_455  S
Eu126       O132   2.375       .  S
Eu127       O131   2.354   1_455  S
Eu127       O142   2.368       .  S
Eu128       O142   2.357   1_565  S
Eu128       O132   2.355       .  S
Eu129       O131   2.357   1_565  S
Eu129       O144   2.341       .  S
Eu130       O131   2.344   1_465  S
Eu130       O142   2.341   1_565  S
Eu130       O144   2.322   1_455  S
Eu130       O132   2.362       .  S
C133       C1115   1.488       .  S
C134       C1095   1.486       .  S
C135       C1022   1.468       .  S
C136       C1032   1.468       .  S
C137       C1045   1.441       .  S
C138       C1052   1.446       .  S
C139        C992   1.494       .  S
C140        C982   1.498       .  S
H141        O142   0.966       .  S
H143        O144   0.964       .  S
C145        C146   1.393       .  A
C145        C150   1.433       .  A
C145       C1145   1.495       .  S
C146        C147   1.389       .  A
C146        H151   1.085       .  S
C147        C148   1.380       .  A
C147       C1055   1.458       .  S
C148        C149   1.391       .  A
C148        H152   1.087       .  S
C149        C150   1.433       .  A
C149        C975   1.492       .  S
C150        H153   1.082       .  S
C154        C155   1.397       .  A
C154        C159   1.424       .  A
C154       C1132   1.485       .  S
C155        C156   1.385       .  A
C155        H160   1.085       .  S
C156        C157   1.380       .  A
C156       C1042   1.457       .  S
C157        C158   1.394       .  A
C157        H161   1.086       .  S
C158        C159   1.423       .  A
C158        C962   1.480       .  S
C159        H162   1.082       .  S
C163        C164   1.418       .  A
C163        C168   1.402       .  A
C163        C952   1.482       .  S
C164        C165   1.416       .  A
C164        H169   1.083       .  S
C165        C166   1.396       .  A
C165       C1155   1.480       .  S
C166        C167   1.394       .  A
C166        H170   1.083       .  S
C167        C168   1.395       .  A
C167       C1035   1.491       .  S
C168        H171   1.084       .  S
C172        C173   1.398       .  A
C172        C177   1.423       .  A
C172       C1125   1.492       .  S
C173        C174   1.397       .  A
C173        H178   1.080       .  S
C174        C175   1.397       .  A
C174       C1025   1.497       .  S
C175        C176   1.403       .  A
C175        H179   1.085       .  S
C176        C177   1.424       .  A
C176        C942   1.490       .  S
C177        H180   1.082       .  S
C181        C182   1.420   1_545  A
C181        C186   1.394       .  A
C181        C922   1.479   1_545  S
C182        C183   1.420   1_565  A
C182        H187   1.082       .  S
C183        C184   1.396       .  A
C183       C1015   1.478   1_545  S
C184        C185   1.388       .  A
C184        H188   1.086       .  S
C185        C186   1.386       .  A
C185        C935   1.461       .  S
C186        H189   1.086       .  S
O190        C201   1.308       .  A
O190       Eu226   2.560       .  S
O191        C202   1.303       .  A
O191       Eu225   2.532       .  S
O192        C203   1.283       .  A
O192       Eu198   2.423       .  S
O193        C204   1.283       .  A
O193       Eu198   2.424       .  S
O194        C204   1.299       .  A
O194       Eu228   2.512       .  S
O195        C203   1.301       .  A
O195       Eu227   2.518       .  S
O196        C202   1.282       .  A
O196       Eu198   2.419       .  S
O197        C201   1.279       .  A
O197       Eu198   2.399       .  S
Eu198       O208   2.354       .  S
Eu198       O200   2.337       .  S
Eu198       O199   2.333       .  S
Eu198       O206   2.334       .  S
O199       Eu228   2.352       .  S
O199       Eu225   2.359       .  S
O200       Eu226   2.342       .  S
O200       Eu227   2.363       .  S
C201        C972   1.493       .  S
C202        C965   1.488       .  S
C203        C872   1.480       .  S
C204        C852   1.481       .  S
H205        O206   0.964       .  S
O206       Eu227   2.346       .  S
O206       Eu225   2.340       .  S
H207        O208   0.966       .  S
O208       Eu226   2.362       .  S
O208       Eu228   2.366       .  S
O209        C232   1.303       .  A
O209       Eu225   2.527   1_565  S
O210        C233   1.301       .  A
O210       Eu226   2.513   1_565  S
O211        C234   1.288       .  A
O211       Eu227   2.431       .  S
O212        C235   1.286       .  A
O212       Eu228   2.417       .  S
O213        C236   1.286       .  A
O213       Eu228   2.412   1_565  S
O214        C237   1.285       .  A
O214       Eu227   2.411       .  S
O215        C238   1.283       .  A
O215       Eu229   2.417       .  S
O216        C239   1.287       .  A
O216       Eu229   2.442       .  S
O217        C238   1.306       .  A
O217       Eu227   2.549   1_565  S
O218        C239   1.302       .  A
O218       Eu228   2.518   1_565  S
O219        C234   1.289       .  A
O219       Eu225   2.436       .  S
O220        C237   1.285       .  A
O220       Eu226   2.412       .  S
O221        C236   1.290       .  A
O221       Eu226   2.448   1_565  S
O222        C235   1.287       .  A
O222       Eu225   2.429       .  S
O223        C232   1.284       .  A
O223       Eu229   2.417       .  S
O224        C233   1.290       .  A
O224       Eu229   2.453       .  S
Eu225       O243   2.364   1_545  S
Eu225       O231   2.369   1_545  S
Eu226       O230   2.345   1_545  S
Eu226       O241   2.376   1_545  S
Eu227       O241   2.353   1_545  S
Eu227       O231   2.354   1_545  S
Eu228       O230   2.336   1_545  S
Eu228       O243   2.355   1_545  S
Eu229       O230   2.321       .  S
Eu229       O241   2.352       .  S
Eu229       O243   2.354       .  S
Eu229       O231   2.359       .  S
C232        C955   1.490       .  S
C233        C945   1.502       .  S
C234        C902   1.462       .  S
C235        C932   1.448       .  S
C236        C895   1.463       .  S
C237        C912   1.437       .  S
C238        C882   1.500       .  S
C239        C862   1.499       .  S
H240        O241   0.966       .  S
H242        O243   0.966       .  S
C244        C245   1.431   1_545  A
C244        C249   1.394       .  A
C244        C845   1.491       .  S
C245        C246   1.431   1_565  A
C245        H250   1.082       .  S
C246        C247   1.392       .  A
C246        C995   1.490   1_545  S
C247        C248   1.382       .  A
C247        H251   1.087       .  S
C248        C249   1.385       .  A
C248        C915   1.455       .  S
C249        H252   1.086       .  S
C253        C254   1.420   1_545  A
C253        C258   1.398       .  A
C253        C832   1.484       .  S
C254        C255   1.419   1_565  A
C254        H259   1.083       .  S
C255        C256   1.398       .  A
C255        C985   1.488   1_545  S
C256        C257   1.398       .  A
C256        H260   1.082       .  S
C257        C258   1.394       .  A
C257        C905   1.484       .  S
C258        H261   1.086       .  S
C262        C263   1.426       .  A
C262        C267   1.400       .  A
C262        C822   1.492       .  S
C263        C264   1.424       .  A
C263        H268   1.082   1_565  S
C264        C265   1.398       .  A
C264       C1002   1.492   1_565  S
C265        C266   1.397       .  A
C265        H269   1.083       .  S
C266        C267   1.393       .  A
C266        C892   1.487       .  S
C267        H270   1.084       .  S
O271        C282   1.303       .  A
O271       Eu307   2.524       .  S
O272        C283   1.301       .  A
O272       Eu306   2.520   1_565  S
O273        C284   1.278       .  A
O273       Eu279   2.397   1_556  S
O274        C285   1.283   1_556  A
O274       Eu279   2.426   1_546  S
O275        C285   1.302       .  A
O275       Eu309   2.528       .  S
O276        C284   1.308       .  A
O276       Eu308   2.560       .  S
O277        C283   1.284       .  A
O277       Eu279   2.423   1_556  S
O278        C282   1.283       .  A
O278       Eu279   2.415       .  S
Eu279       O289   2.334   1_565  S
Eu279       O281   2.357       .  S
Eu279       O280   2.331   1_564  S
Eu279       O287   2.349   1_554  S
O280       Eu309   2.348   1_556  S
O280       Eu306   2.350       .  S
O281       Eu307   2.370       .  S
O281       Eu308   2.351   1_554  S
C282        C925   1.483       .  S
C283        C835   1.493       .  S
C284        C762   1.491       .  S
C285        C742   1.487       .  S
H286        O287   0.966       .  S
O287       Eu308   2.353       .  S
O287       Eu306   2.371   1_565  S
H288        O289   0.965       .  S
O289       Eu307   2.359   1_545  S
O289       Eu309   2.344       .  S
O290        C313   1.304       .  A
O290       Eu306   2.540       .  S
O291        C314   1.305       .  A
O291       Eu307   2.542       .  S
O292        C315   1.288       .  A
O292       Eu308   2.435       .  S
O293        C316   1.286       .  A
O293       Eu309   2.416   1_556  S
O294        C317   1.286       .  A
O294       Eu309   2.425       .  S
O295        C318   1.289       .  A
O295       Eu308   2.438   1_554  S
O296        C319   1.291       .  A
O296       Eu310   2.461   1_566  S
O297        C320   1.287       .  A
O297       Eu310   2.442       .  S
O298        C319   1.298       .  A
O298       Eu308   2.495       .  S
O299        C320   1.300       .  A
O299       Eu309   2.510       .  S
O300        C315   1.284       .  A
O300       Eu306   2.403   1_565  S
O301        C318   1.287       .  A
O301       Eu307   2.425       .  S
O302        C317   1.284       .  A
O302       Eu307   2.420   1_545  S
O303        C316   1.287       .  A
O303       Eu306   2.426       .  S
O304        C313   1.282       .  A
O304       Eu310   2.420   1_556  S
O305        C314   1.284       .  A
O305       Eu310   2.423   1_565  S
Eu306       O324   2.363       .  S
Eu306       O312   2.330   1_545  S
Eu307       O311   2.360   1_565  S
Eu307       O322   2.349       .  S
Eu308       O322   2.369   1_556  S
Eu308       O312   2.352       .  S
Eu309       O311   2.359       .  S
Eu309       O324   2.369   1_554  S
Eu310       O311   2.350       .  S
Eu310       O322   2.333   1_545  S
Eu310       O324   2.351   1_554  S
Eu310       O312   2.331   1_544  S
C313        C842   1.489       .  S
C314        C825   1.499       .  S
C315        C795   1.447       .  S
C316        C782   1.442       .  S
C317        C812   1.431       .  S
C318        C802   1.453       .  S
C319        C755   1.500       .  S
C320        C775   1.500       .  S
H321        O322   0.964       .  S
H323        O324   0.966       .  S
C325        C326   1.397       .  A
C325        C330   1.423       .  A
C325        C855   1.483       .  S
C326        C327   1.381       .  A
C326        H331   1.087       .  S
C327        C328   1.384       .  A
C327        C815   1.447       .  S
C328        C329   1.397       .  A
C328        H332   1.086       .  S
C329        C330   1.424       .  A
C329        C732   1.483       .  S
C330        H333   1.082       .  S
C334        C335   1.398       .  A
C334        C339   1.425       .  A
C334        C865   1.494       .  S
C335        C336   1.394       .  A
C335        H340   1.084       .  S
C336        C337   1.386       .  A
C336        C805   1.474       .  S
C337        C338   1.397       .  A
C337        H341   1.086       .  S
C338        C339   1.426       .  A
C338        C722   1.488       .  S
C339        H342   1.082       .  S
C343        C344   1.398       .  A
C343        C348   1.429       .  A
C343        C885   1.493       .  S
C344        C345   1.390       .  A
C344        H349   1.086       .  S
C345        C346   1.392       .  A
C345        C792   1.472       .  S
C346        C347   1.395       .  A
C346        H350   1.084       .  S
C347        C348   1.428       .  A
C347        C712   1.492       .  S
C348        H351   1.082       .  S
C352        C353   1.395       .  A
C352        C357   1.422       .  A
C352        C875   1.481       .  S
C353        C354   1.386       .  A
C353        H358   1.086       .  S
C354        C355   1.384       .  A
C354        C785   1.456       .  S
C355        C356   1.395       .  A
C355        H359   1.086       .  S
C356        C357   1.422       .  A
C356        C702   1.480       .  S
C357        H360   1.082       .  S
O361        C372   1.304       .  A
O361       Eu397   2.538       .  S
O362        C373   1.302       .  A
O362       Eu396   2.520       .  S
O363        C374   1.285       .  A
O363       Eu369   2.437   1_655  S
O364        C375   1.283       .  A
O364       Eu369   2.418       .  S
O365        C375   1.303       .  A
O365       Eu399   2.526       .  S
O366        C374   1.301       .  A
O366       Eu398   2.518   1_554  S
O367        C373   1.285       .  A
O367       Eu369   2.431   1_556  S
O368        C372   1.282       .  A
O368       Eu369   2.417       .  S
Eu369       O379   2.359       .  S
Eu369       O371   2.340   1_455  S
Eu369       O370   2.333   1_554  S
Eu369       O377   2.337   1_454  S
O370       Eu399   2.350   1_556  S
O370       Eu396   2.355       .  S
O371       Eu397   2.346   1_655  S
O371       Eu398   2.363   1_554  S
C372       C1235   1.494       .  S
C373       C1082   1.486       .  S
C374        C632   1.483   1_554  S
C375        C652   1.492       .  S
H376        O377   0.965       .  S
O377       Eu398   2.347       .  S
O377       Eu396   2.351   1_655  S
H378        O379   0.966       .  S
O379       Eu397   2.354       .  S
O379       Eu399   2.377       .  S
O380        C403   1.305       .  A
O380       Eu396   2.545       .  S
O381        C404   1.299       .  A
O381       Eu397   2.503       .  S
O382        C405   1.284       .  A
O382       Eu398   2.401       .  S
O383        C406   1.290       .  A
O383       Eu399   2.438   1_556  S
O384        C407   1.293       .  A
O384       Eu399   2.467       .  S
O385        C408   1.285       .  A
O385       Eu398   2.408   1_554  S
O386        C409   1.283       .  A
O386       Eu400   2.426   1_655  S
O387        C410   1.284       .  A
O387       Eu400   2.424       .  S
O388        C409   1.305       .  A
O388       Eu398   2.541       .  S
O389        C410   1.303       .  A
O389       Eu399   2.529   1_556  S
O390        C405   1.293       .  A
O390       Eu396   2.468   1_655  S
O391        C408   1.287       .  A
O391       Eu397   2.426   1_655  S
O392        C407   1.283       .  A
O392       Eu397   2.398       .  S
O393        C406   1.289       .  A
O393       Eu396   2.436       .  S
O394        C403   1.280       .  A
O394       Eu400   2.398       .  S
O395        C404   1.287       .  A
O395       Eu400   2.439   1_554  S
Eu396       O414   2.375       .  S
Eu396       O402   2.363   1_455  S
Eu397       O401   2.343       .  S
Eu397       O412   2.360   1_455  S
Eu398       O412   2.343   1_556  S
Eu398       O402   2.355       .  S
Eu399       O401   2.333       .  S
Eu399       O414   2.378   1_554  S
Eu400       O401   2.322   1_556  S
Eu400       O412   2.340   1_456  S
Eu400       O414   2.363       .  S
Eu400       O402   2.351   1_455  S
C403       C1105   1.488       .  S
C404       C1065   1.489       .  S
C405        C662   1.464       .  S
C406        C672   1.471       .  S
C407        C682   1.468       .  S
C408        C692   1.440       .  S
C409        C622   1.490       .  S
C410        C642   1.500       .  S
H411        O412   0.966       .  S
H413        O414   0.966       .  S
C415        C416   1.393       .  A
C415        C420   1.429       .  A
C415       C1172   1.488       .  S
C416        C417   1.383       .  A
C416        H421   1.086       .  S
C417        C418   1.384       .  A
C417        C695   1.454       .  S
C418        C419   1.394       .  A
C418        H422   1.086       .  S
C419        C420   1.429       .  A
C419        C612   1.489       .  S
C420        H423   1.082       .  S
C424        C425   1.403       .  A
C424        C429   1.419       .  A
C424       C1165   1.486       .  S
C425        C426   1.400       .  A
C425        H430   1.085       .  S
C426        C427   1.395       .  A
C426        C685   1.490       .  S
C427        C428   1.398       .  A
C427        H431   1.082       .  S
C428        C429   1.417       .  A
C428        C605   1.483       .  S
C429        H432   1.083       .  S
C433        C434   1.399       .  A
C433        C438   1.412       .  A
C433       C1182   1.481       .  S
C434        C435   1.403       .  A
C434        H439   1.081       .  S
C435        C436   1.395       .  A
C435        C675   1.496       .  S
C436        C437   1.399       .  A
C436        H440   1.082       .  S
C437        C438   1.414       .  A
C437        C595   1.478       .  S
C438        H441   1.083       .  S
C442        C443   1.398       .  A
C442        C447   1.422       .  A
C442       C1195   1.489       .  S
C443        C444   1.393       .  A
C443        H448   1.083       .  S
C444        C445   1.397       .  A
C444        C665   1.481       .  S
C445        C446   1.400       .  A
C445        H449   1.086       .  S
C446        C447   1.423       .  A
C446        C582   1.491       .  S
C447        H450   1.082       .  S
C451        C452   1.398       .  A
C451        C456   1.419   1_556  A
C451        C655   1.483   1_556  S
C452        C453   1.390       .  A
C452        H457   1.084       .  S
C453        C454   1.402       .  A
C453        C572   1.487       .  S
C454        C455   1.400       .  A
C454        H458   1.082       .  S
C455        C456   1.419   1_556  A
C455        C772   1.489   1_556  S
C456        H459   1.083       .  S
O460        C471   1.304       .  A
O460       Eu496   2.533   1_554  S
O461        C472   1.302       .  A
O461       Eu495   2.523       .  S
O462        C473   1.285       .  A
O462       Eu468   2.435       .  S
O463        C474   1.284       .  A
O463       Eu468   2.423       .  S
O464        C474   1.302       .  A
O464       Eu498   2.518       .  S
O465        C473   1.302       .  A
O465       Eu497   2.525       .  S
O466        C472   1.287       .  A
O466       Eu468   2.438       .  S
O467        C471   1.282       .  A
O467       Eu468   2.406       .  S
Eu468       O478   2.362       .  S
Eu468       O470   2.346       .  S
Eu468       O469   2.328       .  S
Eu468       O476   2.336       .  S
O469       Eu498   2.343       .  S
O469       Eu495   2.350       .  S
O470       Eu496   2.359   1_554  S
O470       Eu497   2.354       .  S
C471        C735   1.493       .  S
C472        C725   1.492       .  S
C473        C615   1.488       .  S
C474        C602   1.498       .  S
H475        O476   0.965       .  S
O476       Eu497   2.348       .  S
O476       Eu495   2.361       .  S
H477        O478   0.966       .  S
O478       Eu496   2.354   1_554  S
O478       Eu498   2.360       .  S
O479        C502   1.306       .  A
O479       Eu495   2.550   1_556  S
O480        C503   1.301       .  A
O480       Eu496   2.519       .  S
O481        C504   1.283       .  A
O481       Eu497   2.399       .  S
O482        C505   1.287       .  A
O482       Eu498   2.422       .  S
O483        C506   1.289       .  A
O483       Eu498   2.438   1_556  S
O484        C507   1.285   1_554  A
O484       Eu497   2.413       .  S
O485        C508   1.286       .  A
O485       Eu499   2.437       .  S
O486        C509   1.284       .  A
O486       Eu499   2.424       .  S
O487        C508   1.302       .  A
O487       Eu497   2.523   1_556  S
O488        C509   1.300       .  A
O488       Eu498   2.507   1_556  S
O489        C504   1.286       .  A
O489       Eu495   2.416       .  S
O490        C507   1.286       .  A
O490       Eu496   2.422       .  S
O491        C506   1.286       .  A
O491       Eu496   2.424       .  S
O492        C505   1.291       .  A
O492       Eu495   2.448       .  S
O493        C502   1.282       .  A
O493       Eu499   2.411       .  S
O494        C503   1.284       .  A
O494       Eu499   2.428       .  S
Eu495       O513   2.362   1_554  S
Eu495       O501   2.359   1_554  S
Eu496       O500   2.339       .  S
Eu496       O511   2.359       .  S
Eu497       O511   2.347   1_554  S
Eu497       O501   2.360   1_554  S
Eu498       O500   2.333   1_554  S
Eu498       O513   2.373   1_554  S
Eu499       O500   2.327       .  S
Eu499       O511   2.343       .  S
Eu499       O513   2.363       .  S
Eu499       O501   2.337       .  S
C502        C715   1.498       .  S
C503        C705   1.480       .  S
C504        C565   1.430       .  S
C505        C552   1.467       .  S
C506        C575   1.464       .  S
C507        C542   1.439       .  S
C508        C585   1.500       .  S
C509        C592   1.490       .  S
H510        O511   0.965       .  S
H512        O513   0.966       .  S
C514        C515   1.433   1_554  A
C514        C519   1.387       .  A
C514        C765   1.491   1_554  S
C515        C516   1.435   1_556  A
C515        H520   1.082       .  S
C516        C517   1.394       .  A
C516        C625   1.492   1_554  S
C517        C518   1.381       .  A
C517        H521   1.086       .  S
C518        C519   1.377       .  A
C518        C562   1.444       .  S
C519        H522   1.087       .  S
C523        C524   1.419       .  A
C523        C528   1.401       .  A
C523        C752   1.488   1_554  S
C524        C525   1.420       .  A
C524        H529   1.083   1_554  S
C525        C526   1.400       .  A
C525        C645   1.487       .  S
C526        C527   1.397       .  A
C526        H530   1.085       .  S
C527        C528   1.399       .  A
C527        C555   1.491       .  S
C528        H531   1.082       .  S
C532        C533   1.428       .  A
C532        C537   1.392       .  A
C532        C745   1.486       .  S
C533        C534   1.429       .  A
C533        H538   1.082   1_556  S
C534        C535   1.396       .  A
C534        C635   1.490       .  S
C535        C536   1.385       .  A
C535        H539   1.086       .  S
C536        C537   1.381       .  A
C536        C545   1.455       .  S
C537        H540   1.086       .  S
C541        C542   1.395   1_554  A
C541        C546   1.383       .  A
C541        H548   1.084       .  S
C542        C543   1.402       .  A
C543        C544   1.385       .  A
C543        F550   1.358       .  S
C544        C545   1.400       .  A
C544        H549   1.084       .  S
C545        C546   1.408   1_556  A
C546        F547   1.358       .  S
C551        C552   1.405       .  A
C551        C556   1.397       .  A
C551        H558   1.083       .  S
C552        C553   1.402       .  A
C553        C554   1.382       .  A
C553        F560   1.359       .  S
C554        C555   1.412       .  A
C554        H559   1.080       .  S
C555        C556   1.410       .  A
C556        F557   1.357       .  S
C561        C562   1.397       .  A
C561        C566   1.385       .  A
C561        H568   1.084       .  S
C562        C563   1.406   1_554  A
C563        C564   1.377       .  A
C563        F570   1.359       .  S
C564        C565   1.393   1_556  A
C564        H569   1.084       .  S
C565        C566   1.402       .  A
C566        F567   1.358       .  S
C571        C572   1.405       .  A
C571        C576   1.392       .  A
C571        H578   1.083       .  S
C572        C573   1.420       .  A
C573        C574   1.386       .  A
C573        F580   1.356       .  S
C574        C575   1.395       .  A
C574        H579   1.084       .  S
C575        C576   1.407       .  A
C576        F577   1.357       .  S
C581        C582   1.411       .  A
C581        C586   1.407       .  A
C581        H588   1.083       .  S
C582        C583   1.402       .  A
C583        C584   1.406       .  A
C583        F590   1.357       .  S
C584        C585   1.414       .  A
C584        H589   1.083       .  S
C585        C586   1.406       .  A
C586        F587   1.357       .  S
C591        C592   1.403       .  A
C591        C596   1.403       .  A
C591        H598   1.083       .  S
C592        C593   1.416       .  A
C593        C594   1.399       .  A
C593        F600   1.358       .  S
C594        C595   1.398       .  A
C594        H599   1.083       .  S
C595        C596   1.411       .  A
C596        F597   1.358       .  S
C601        C602   1.404       .  A
C601        C606   1.404       .  A
C601        H608   1.083       .  S
C602        C603   1.420       .  A
C603        C604   1.400       .  A
C603        F610   1.357       .  S
C604        C605   1.397       .  A
C604        H609   1.084       .  S
C605        C606   1.412       .  A
C606        F607   1.358       .  S
C611        C612   1.406       .  A
C611        C616   1.407       .  A
C611        H618   1.083       .  S
C612        C613   1.414       .  A
C613        C614   1.406       .  A
C613        F620   1.358       .  S
C614        C615   1.401       .  A
C614        H619   1.083       .  S
C615        C616   1.410       .  A
C616        F617   1.358       .  S
C621        C622   1.404   1_554  A
C621        C626   1.405       .  A
C621        H628   1.084       .  S
C622        C623   1.408       .  A
C623        C624   1.412       .  A
C623        F630   1.357       .  S
C624        C625   1.410       .  A
C624        H629   1.083       .  S
C625        C626   1.412   1_556  A
C626        F627   1.358       .  S
C631        C632   1.408   1_554  A
C631        C636   1.410       .  A
C631        H638   1.082       .  S
C632        C633   1.402       .  A
C633        C634   1.401       .  A
C633        F640   1.358       .  S
C634        C635   1.411       .  A
C634        H639   1.084       .  S
C635        C636   1.408   1_556  A
C636        F637   1.357       .  S
C641        C642   1.414   1_554  A
C641        C646   1.401       .  A
C641        H648   1.083       .  S
C642        C643   1.407       .  A
C643        C644   1.409       .  A
C643        F650   1.357       .  S
C644        C645   1.412   1_556  A
C644        H649   1.083       .  S
C645        C646   1.401       .  A
C646        F647   1.357       .  S
C651        C652   1.403       .  A
C651        C656   1.408       .  A
C651        H658   1.083       .  S
C652        C653   1.415   1_554  A
C653        C654   1.399       .  A
C653        F660   1.358       .  S
C654        C655   1.400   1_556  A
C654        H659   1.084       .  S
C655        C656   1.413       .  A
C656        F657   1.357       .  S
C661        C662   1.404       .  A
C661        C666   1.399       .  A
C661        H668   1.083       .  S
C662        C663   1.404       .  A
C663        C664   1.379       .  A
C663        F670   1.359       .  S
C664        C665   1.406       .  A
C664        H669   1.081       .  S
C665        C666   1.410       .  A
C666        F667   1.357       .  S
C671        C672   1.398       .  A
C671        C676   1.387       .  A
C671        H678   1.083       .  S
C672        C673   1.407       .  A
C673        C674   1.393       .  A
C673        F680   1.357       .  S
C674        C675   1.408       .  A
C674        H679   1.082       .  S
C675        C676   1.420       .  A
C676        F677   1.355       .  S
C681        C682   1.404       .  A
C681        C686   1.399       .  A
C681        H688   1.083       .  S
C682        C683   1.405       .  A
C683        C684   1.380       .  A
C683        F690   1.359       .  S
C684        C685   1.408       .  A
C684        H689   1.080       .  S
C685        C686   1.412       .  A
C686        F687   1.358       .  S
C691        C692   1.397       .  A
C691        C696   1.382       .  A
C691        H698   1.084       .  S
C692        C693   1.401       .  A
C693        C694   1.386       .  A
C693        F700   1.358       .  S
C694        C695   1.402       .  A
C694        H699   1.084       .  S
C695        C696   1.405       .  A
C696        F697   1.358       .  S
C701        C702   1.407       .  A
C701        C706   1.401       .  A
C701        H708   1.084       .  S
C702        C703   1.410       .  A
C703        C704   1.405       .  A
C703        F710   1.357       .  S
C704        C705   1.403       .  A
C704        H709   1.081       .  S
C705        C706   1.405       .  A
C706        F707   1.357       .  S
C711        C712   1.402       .  A
C711        C716   1.402       .  A
C711        H718   1.084       .  S
C712        C713   1.415       .  A
C713        C714   1.413       .  A
C713        F720   1.357       .  S
C714        C715   1.406       .  A
C714        H719   1.083       .  S
C715        C716   1.414       .  A
C716        F717   1.358       .  S
C721        C722   1.405       .  A
C721        C726   1.403       .  A
C721        H728   1.083       .  S
C722        C723   1.413       .  A
C723        C724   1.408       .  A
C723        F730   1.358       .  S
C724        C725   1.404       .  A
C724        H729   1.083       .  S
C725        C726   1.411       .  A
C726        F727   1.357       .  S
C731        C732   1.413       .  A
C731        C736   1.406       .  A
C731        H738   1.084       .  S
C732        C733   1.399       .  A
C733        C734   1.400       .  A
C733        F740   1.358       .  S
C734        C735   1.415       .  A
C734        H739   1.083       .  S
C735        C736   1.404       .  A
C736        F737   1.357       .  S
C741        C742   1.408   1_556  A
C741        C746   1.407       .  A
C741        H748   1.083       .  S
C742        C743   1.402       .  A
C743        C744   1.404       .  A
C743        F750   1.355       .  S
C744        C745   1.411   1_554  A
C744        H749   1.084       .  S
C745        C746   1.408       .  A
C746        F747   1.357       .  S
C751        C752   1.408       .  A
C751        C756   1.402       .  A
C751        H758   1.084       .  S
C752        C753   1.403   1_556  A
C753        C754   1.405       .  A
C753        F760   1.357       .  S
C754        C755   1.414   1_554  A
C754        H759   1.083       .  S
C755        C756   1.410       .  A
C756        F757   1.357       .  S
C761        C762   1.404       .  A
C761        C766   1.411       .  A
C761        H768   1.083       .  S
C762        C763   1.410   1_556  A
C763        C764   1.406       .  A
C763        F770   1.358       .  S
C764        C765   1.408   1_554  A
C764        H769   1.083       .  S
C765        C766   1.415       .  A
C766        F767   1.357       .  S
C771        C772   1.400       .  A
C771        C776   1.403       .  A
C771        H778   1.083   1_554  S
C772        C773   1.412       .  A
C773        C774   1.405       .  A
C773        F780   1.358       .  S
C774        C775   1.406       .  A
C774        H779   1.083       .  S
C775        C776   1.419       .  A
C776        F777   1.358   1_554  S
C781        C782   1.401       .  A
C781        C786   1.389       .  A
C781        H788   1.084       .  S
C782        C783   1.398       .  A
C783        C784   1.383       .  A
C783        F790   1.359       .  S
C784        C785   1.404       .  A
C784        H789   1.084       .  S
C785        C786   1.402       .  A
C786        F787   1.358       .  S
C791        C792   1.410       .  A
C791        C796   1.380       .  A
C791        H798   1.081       .  S
C792        C793   1.405       .  A
C793        C794   1.392       .  A
C793        F800   1.357       .  S
C794        C795   1.402       .  A
C794        H799   1.082       .  S
C795        C796   1.396       .  A
C796        F797   1.359       .  S
C801        C802   1.392       .  A
C801        C806   1.384       .  A
C801        H808   1.084       .  S
C802        C803   1.407       .  A
C803        C804   1.390       .  A
C803        F810   1.358       .  S
C804        C805   1.402       .  A
C804        H809   1.084       .  S
C805        C806   1.416       .  A
C806        F807   1.356       .  S
C811        C812   1.389       .  A
C811        C816   1.379       .  A
C811        H818   1.084       .  S
C812        C813   1.403       .  A
C813        C814   1.392       .  A
C813        F820   1.356       .  S
C814        C815   1.395       .  A
C814        H819   1.083       .  S
C815        C816   1.408       .  A
C816        F817   1.359       .  S
C821        C822   1.402       .  A
C821        C826   1.403       .  A
C821        H828   1.083       .  S
C822        C823   1.414   1_565  A
C823        C824   1.412       .  A
C823        F830   1.357       .  S
C824        C825   1.406   1_545  A
C824        H829   1.083       .  S
C825        C826   1.414       .  A
C826        F827   1.358       .  S
C831        C832   1.411   1_565  A
C831        C836   1.406       .  A
C831        H838   1.084       .  S
C832        C833   1.401       .  A
C833        C834   1.401       .  A
C833        F840   1.357       .  S
C834        C835   1.413   1_545  A
C834        H839   1.083       .  S
C835        C836   1.405       .  A
C836        F837   1.357       .  S
C841        C842   1.407   1_565  A
C841        C846   1.412       .  A
C841        H848   1.083       .  S
C842        C843   1.406       .  A
C843        C844   1.404       .  A
C843        F850   1.358       .  S
C844        C845   1.409       .  A
C844        H849   1.084       .  S
C845        C846   1.411   1_545  A
C846        F847   1.357       .  S
C851        C852   1.405       .  A
C851        C856   1.411       .  A
C851        H858   1.083       .  S
C852        C853   1.402       .  A
C853        C854   1.395       .  A
C853        F860   1.354       .  S
C854        C855   1.405       .  A
C854        H859   1.084       .  S
C855        C856   1.413       .  A
C856        F857   1.357       .  S
C861        C862   1.414       .  A
C861        C866   1.407       .  A
C861        H868   1.083       .  S
C862        C863   1.406       .  A
C863        C864   1.405       .  A
C863        F870   1.357       .  S
C864        C865   1.413       .  A
C864        H869   1.084       .  S
C865        C866   1.403       .  A
C866        F867   1.357       .  S
C871        C872   1.401       .  A
C871        C876   1.404       .  A
C871        H878   1.083       .  S
C872        C873   1.409       .  A
C873        C874   1.402       .  A
C873        F880   1.358       .  S
C874        C875   1.403       .  A
C874        H879   1.083       .  S
C875        C876   1.412       .  A
C876        F877   1.357       .  S
C881        C882   1.406       .  A
C881        C886   1.413       .  A
C881        H888   1.083       .  S
C882        C883   1.414       .  A
C883        C884   1.403       .  A
C883        F890   1.358       .  S
C884        C885   1.403       .  A
C884        H889   1.084       .  S
C885        C886   1.415       .  A
C886        F887   1.357       .  S
C891        C892   1.409       .  A
C891        C896   1.396       .  A
C891        H898   1.083       .  S
C892        C893   1.417       .  A
C893        C894   1.381       .  A
C893        F900   1.356       .  S
C894        C895   1.397       .  A
C894        H899   1.084       .  S
C895        C896   1.405       .  A
C896        F897   1.358       .  S
C901        C902   1.404       .  A
C901        C906   1.393       .  A
C901        H908   1.081       .  S
C902        C903   1.400       .  A
C903        C904   1.384       .  A
C903        F910   1.358       .  S
C904        C905   1.412       .  A
C904        H909   1.081       .  S
C905        C906   1.407       .  A
C906        F907   1.358       .  S
C911        C912   1.401       .  A
C911        C916   1.387       .  A
C911        H918   1.083       .  S
C912        C913   1.396   1_545  A
C913        C914   1.379   1_565  A
C913        F920   1.359       .  S
C914        C915   1.406       .  A
C914        H919   1.084   1_545  S
C915        C916   1.401       .  A
C916        F917   1.357       .  S
C921        C922   1.411       .  A
C921        C926   1.405       .  A
C921        H928   1.083       .  S
C922        C923   1.403   1_565  A
C923        C924   1.400       .  A
C923        F930   1.358       .  S
C924        C925   1.409   1_545  A
C924        H929   1.084       .  S
C925        C926   1.402       .  A
C926        F927   1.357       .  S
C931        C932   1.395       .  A
C931        C936   1.379       .  A
C931        H938   1.084   1_545  S
C932        C933   1.404       .  A
C933        C934   1.392       .  A
C933        F940   1.358       .  S
C934        C935   1.402       .  A
C934        H939   1.083       .  S
C935        C936   1.409       .  A
C936        F937   1.358   1_545  S
C941        C942   1.410       .  A
C941        C946   1.407       .  A
C941        H948   1.083       .  S
C942        C943   1.403       .  A
C943        C944   1.405       .  A
C943        F950   1.357       .  S
C944        C945   1.413       .  A
C944        H949   1.083       .  S
C945        C946   1.409       .  A
C946        F947   1.357       .  S
C951        C952   1.410       .  A
C951        C956   1.407       .  A
C951        H958   1.083       .  S
C952        C953   1.400       .  A
C953        C954   1.400       .  A
C953        F960   1.357       .  S
C954        C955   1.412       .  A
C954        H959   1.084       .  S
C955        C956   1.405       .  A
C956        F957   1.357       .  S
C961        C962   1.400       .  A
C961        C966   1.403       .  A
C961        H968   1.083       .  S
C962        C963   1.414       .  A
C963        C964   1.402       .  A
C963        F970   1.358       .  S
C964        C965   1.400       .  A
C964        H969   1.079       .  S
C965        C966   1.411       .  A
C966        F967   1.351       .  S
C971        C972   1.404       .  A
C971        C976   1.412       .  A
C971        H978   1.083       .  S
C972        C973   1.412       .  A
C973        C974   1.406       .  A
C973        F980   1.358       .  S
C974        C975   1.406       .  A
C974        H979   1.083       .  S
C975        C976   1.416       .  A
C976        F977   1.357       .  S
C981        C982   1.405       .  A
C981        C986   1.404       .  A
C981        H988   1.083       .  S
C982        C983   1.418   1_565  A
C983        C984   1.403       .  A
C983        F990   1.357       .  S
C984        C985   1.399   1_545  A
C984        H989   1.083       .  S
C985        C986   1.412       .  A
C986        F987   1.358       .  S
C991        C992   1.404       .  A
C991        C996   1.411       .  A
C991        H998   1.083       .  S
C992        C993   1.412   1_565  A
C993        C994   1.405       .  A
C993       F1000   1.358       .  S
C994        C995   1.406   1_545  A
C994        H999   1.083       .  S
C995        C996   1.415       .  A
C996        F997   1.357       .  S
C1001      C1002   1.413       .  A
C1001      C1006   1.407       .  A
C1001      H1008   1.084       .  S
C1002      C1003   1.402   1_545  A
C1003      C1004   1.405       .  A
C1003      F1010   1.357       .  S
C1004      C1005   1.415   1_565  A
C1004      H1009   1.083       .  S
C1005      C1006   1.408       .  A
C1006      F1007   1.357       .  S
C1011      C1012   1.404   1_545  A
C1011      C1016   1.399       .  A
C1011      H1018   1.082       .  S
C1012      C1013   1.404       .  A
C1013      C1014   1.406       .  A
C1013      F1020   1.357       .  S
C1014      C1015   1.408       .  A
C1014      H1019   1.083       .  S
C1015      C1016   1.406   1_565  A
C1016      F1017   1.358       .  S
C1021      C1022   1.403       .  A
C1021      C1026   1.394       .  A
C1021      H1028   1.080       .  S
C1022      C1023   1.402       .  A
C1023      C1024   1.387       .  A
C1023      F1030   1.358       .  S
C1024      C1025   1.414       .  A
C1024      H1029   1.079       .  S
C1025      C1026   1.411       .  A
C1026      F1027   1.357       .  S
C1031      C1032   1.401       .  A
C1031      C1036   1.380       .  A
C1031      H1038   1.084       .  S
C1032      C1033   1.404       .  A
C1033      C1034   1.396       .  A
C1033      F1040   1.356       .  S
C1034      C1035   1.411       .  A
C1034      H1039   1.082       .  S
C1035      C1036   1.415       .  A
C1036      F1037   1.355       .  S
C1041      C1042   1.401       .  A
C1041      C1046   1.386       .  A
C1041      H1048   1.083       .  S
C1042      C1043   1.408       .  A
C1043      C1044   1.382       .  A
C1043      F1050   1.358       .  S
C1044      C1045   1.396       .  A
C1044      H1049   1.084       .  S
C1045      C1046   1.401       .  A
C1046      F1047   1.358       .  S
C1051      C1052   1.394       .  A
C1051      C1056   1.381       .  A
C1051      H1058   1.084       .  S
C1052      C1053   1.406       .  A
C1053      C1054   1.382       .  A
C1053      F1060   1.356       .  S
C1054      C1055   1.397       .  A
C1054      H1059   1.083       .  S
C1055      C1056   1.413       .  A
C1056      F1057   1.357       .  S
C1061      C1062   1.409       .  A
C1061      C1066   1.403       .  A
C1061      H1068   1.084       .  S
C1062      C1063   1.403   1_455  A
C1063      C1064   1.403       .  A
C1063      F1070   1.357       .  S
C1064      C1065   1.410   1_655  A
C1064      H1069   1.083       .  S
C1065      C1066   1.405       .  A
C1066      F1067   1.357       .  S
C1071      C1072   1.410   1_455  A
C1071      C1076   1.406       .  A
C1071      H1078   1.083       .  S
C1072      C1073   1.403       .  A
C1073      C1074   1.401       .  A
C1073      F1080   1.357       .  S
C1074      C1075   1.410   1_655  A
C1074      H1079   1.084       .  S
C1075      C1076   1.404       .  A
C1076      F1077   1.353       .  S
C1081      C1082   1.401       .  A
C1081      C1086   1.404       .  A
C1081      H1088   1.080       .  S
C1082      C1083   1.410   1_455  A
C1083      C1084   1.404       .  A
C1083      F1090   1.358       .  S
C1084      C1085   1.404   1_655  A
C1084      H1089   1.083       .  S
C1085      C1086   1.412       .  A
C1086      F1087   1.358       .  S
C1091      C1092   1.404       .  A
C1091      C1096   1.403       .  A
C1091      H1098   1.083       .  S
C1092      C1093   1.411   1_655  A
C1093      C1094   1.407       .  A
C1093      F1100   1.357       .  S
C1094      C1095   1.404   1_455  A
C1094      H1099   1.083       .  S
C1095      C1096   1.409       .  A
C1096      F1097   1.357       .  S
C1101      C1102   1.401       .  A
C1101      C1106   1.398       .  A
C1101      H1108   1.084       .  S
C1102      C1103   1.414   1_455  A
C1103      C1104   1.411       .  A
C1103      F1110   1.357       .  S
C1104      C1105   1.405   1_655  A
C1104      H1109   1.083       .  S
C1105      C1106   1.411       .  A
C1106      F1107   1.358       .  S
C1111      C1112   1.403       .  A
C1111      C1116   1.401       .  A
C1111      H1118   1.084       .  S
C1112      C1113   1.412   1_455  A
C1113      C1114   1.407       .  A
C1113      F1120   1.357       .  S
C1114      C1115   1.403   1_655  A
C1114      H1119   1.080       .  S
C1115      C1116   1.411       .  A
C1116      F1117   1.358       .  S
C1121      C1122   1.415       .  A
C1121      C1126   1.406       .  A
C1121      H1128   1.083       .  S
C1122      C1123   1.408       .  A
C1123      C1124   1.406       .  A
C1123      F1130   1.357       .  S
C1124      C1125   1.411       .  A
C1124      H1129   1.084       .  S
C1125      C1126   1.402       .  A
C1126      F1127   1.357       .  S
C1131      C1132   1.410       .  A
C1131      C1136   1.396       .  A
C1131      H1138   1.084       .  S
C1132      C1133   1.407       .  A
C1133      C1134   1.408       .  A
C1133      F1140   1.357       .  S
C1134      C1135   1.408       .  A
C1134      H1139   1.083       .  S
C1135      C1136   1.399       .  A
C1136      F1137   1.357       .  S
C1141      C1142   1.408       .  A
C1141      C1146   1.414       .  A
C1141      H1148   1.083       .  S
C1142      C1143   1.406       .  A
C1143      C1144   1.405       .  A
C1143      F1150   1.358       .  S
C1144      C1145   1.409       .  A
C1144      H1149   1.084       .  S
C1145      C1146   1.412       .  A
C1146      F1147   1.357       .  S
C1151      C1152   1.403       .  A
C1151      C1156   1.403       .  A
C1151      H1158   1.083       .  S
C1152      C1153   1.416       .  A
C1153      C1154   1.400       .  A
C1153      F1160   1.358       .  S
C1154      C1155   1.399       .  A
C1154      H1159   1.084       .  S
C1155      C1156   1.412       .  A
C1156      F1157   1.358       .  S
C1161      C1162   1.406       .  A
C1161      C1166   1.408       .  A
C1161      H1168   1.083       .  S
C1162      C1163   1.418       .  A
C1163      C1164   1.401       .  A
C1163      F1170   1.358       .  S
C1164      C1165   1.399       .  A
C1164      H1169   1.083       .  S
C1165      C1166   1.411       .  A
C1166      F1167   1.357       .  S
C1171      C1172   1.408       .  A
C1171      C1176   1.409       .  A
C1171      H1178   1.083       .  S
C1172      C1173   1.412       .  A
C1173      C1174   1.404       .  A
C1173      F1180   1.358       .  S
C1174      C1175   1.402       .  A
C1174      H1179   1.084       .  S
C1175      C1176   1.408       .  A
C1176      F1177   1.355       .  S
C1181      C1182   1.408       .  A
C1181      C1186   1.401       .  A
C1181      H1188   1.084       .  S
C1182      C1183   1.401       .  A
C1183      C1184   1.401       .  A
C1183      F1190   1.357       .  S
C1184      C1185   1.412       .  A
C1184      H1189   1.083       .  S
C1185      C1186   1.408       .  A
C1186      F1187   1.357       .  S
C1191      C1192   1.414       .  A
C1191      C1196   1.405       .  A
C1191      H1198   1.083       .  S
C1192      C1193   1.407       .  A
C1193      C1194   1.405       .  A
C1193      F1200   1.357       .  S
C1194      C1195   1.411       .  A
C1194      H1199   1.084       .  S
C1195      C1196   1.402       .  A
C1196      F1197   1.357       .  S
C1201      C1202   1.405       .  A
C1201      C1206   1.395       .  A
C1201      H1208   1.084       .  S
C1202      C1203   1.397       .  A
C1203      C1204   1.380       .  A
C1203      F1210   1.359   1_655  S
C1204      C1205   1.409       .  A
C1204      H1209   1.081       .  S
C1205      C1206   1.404       .  A
C1206      F1207   1.357       .  S
C1211      C1212   1.404       .  A
C1211      C1216   1.380   1_655  A
C1211      H1218   1.084   1_655  S
C1212      C1213   1.404       .  A
C1213      C1214   1.394       .  A
C1213      F1220   1.357       .  S
C1214      C1215   1.402       .  A
C1214      H1219   1.084       .  S
C1215      C1216   1.399   1_655  A
C1216      F1217   1.359       .  S
C1221      C1222   1.409       .  A
C1221      C1226   1.378       .  A
C1221      H1228   1.079       .  S
C1222      C1223   1.404       .  A
C1223      C1224   1.394       .  A
C1223      F1230   1.357       .  S
C1224      C1225   1.403       .  A
C1224      H1229   1.082       .  S
C1225      C1226   1.394       .  A
C1226      F1227   1.359   1_455  S
C1231      C1232   1.402   1_655  A
C1231      C1236   1.404       .  A
C1231      H1238   1.083       .  S
C1232      C1233   1.415       .  A
C1233      C1234   1.410       .  A
C1233      F1240   1.357       .  S
C1234      C1235   1.403       .  A
C1234      H1239   1.083       .  S
C1235      C1236   1.413   1_455  A
C1236      F1237   1.357       .  S
C1241      C1242   1.408   1_655  A
C1241      C1246   1.406       .  A
C1241      H1248   1.082       .  S
C1242      C1243   1.406       .  A
C1243      C1244   1.409       .  A
C1243      F1250   1.353       .  S
C1244      C1245   1.410       .  A
C1244      H1249   1.083       .  S
C1245      C1246   1.408   1_455  A
C1246      F1247   1.357       .  S
C1251      C1252   1.395       .  A
C1251      C1256   1.390       .  A
C1251      H1258   1.083       .  S
C1252      C1253   1.406   1_655  A
C1253      C1254   1.381       .  A
C1253      F1260   1.359       .  S
C1254      C1255   1.392   1_455  A
C1254      H1259   1.084       .  S
C1255      C1256   1.402       .  A
C1256      F1257   1.355       .  S
