geometry optimzed in LAMMPS
_audit_creation_date              2020-11-30 
_audit_creation_method            'lammps2cif' 
_symmetry_space_group_name_H-M    'P1' 
_symmetry_Int_Tables_number       1 
_symmetry_cell_setting            triclinic 
loop_ 
_symmetry_equiv_pos_as_xyz 
  x,y,z 
_cell_length_a                    39.83452288357629 
_cell_length_b                    22.46572359082799 
_cell_length_c                    29.117905683204317 
_cell_angle_alpha                 91.73268826899555 
_cell_angle_beta                  89.88323209836099 
_cell_angle_gamma                 89.98657677850058 
loop_ 
_atom_site_label 
_atom_site_type_symbol 
_atom_site_fract_x 
_atom_site_fract_y 
_atom_site_fract_z 
_atom_site_charge 
O1          O  0.46415563  0.04226197  0.36036205    -0.86350
C2          C  0.05042259  0.79012374  0.98716260     1.13690
O3          O  0.00187933  0.02535998  0.44966320    -1.34160
O4          O  0.46422055  0.81155392  0.45101232    -0.87840
O5          O  0.46369213  0.12835987  0.40101351    -0.88500
O6          O  0.43175629  0.05993922  0.49895248    -0.77330
O7          O  0.47040047  0.92639470  0.40405107    -0.99410
C8          C  0.43979233  0.92419408  0.07905823     1.23730
O9          O  0.50125600  0.02110230  0.04504893    -1.34310
Mn10       Mn  0.03816015  0.98719537  0.99525058     1.82050
O11         O  0.42996466  0.94886202  0.04348590    -0.76400
O12         O  0.46332911  0.80418184  0.02778449    -0.85800
C13         C  0.06307767  0.92518432  0.07744067     1.14820
C14         C  0.45210069  0.78820322  0.98838344     1.09540
O15         O  0.07188647  0.05770922  0.99700373    -0.77340
O16         O  0.00159994  0.91628391  0.99267638    -1.31030
O17         O  0.03391917  0.12474323  0.00037926    -0.96550
C18         C  0.45253481  0.08358777  0.13186252     1.08250
Mn19       Mn  0.50097973  0.86171629  0.05287531     1.48570
O20         O  0.46390747  0.11903649  0.10244825    -0.85750
Mn21       Mn  0.00216811  0.12109028  0.44977422     1.49560
O22         O  0.03939669  0.04013214  0.35924259    -0.89630
C23         C  0.44028856  0.93183368  0.40971472     1.21450
C24         C  0.05114912  0.09167591  0.36810595     1.13510
Mn25       Mn  0.46534262  0.98927177  0.49648424     1.80970
O26         O  0.03296052  0.91917180  0.08237742    -0.94780
Mn27       Mn  0.50173608  0.98689700  0.38409885     1.49260
C28         C  0.45237611  0.09376345  0.36939902     1.10030
Mn29       Mn  0.00183987  0.97869166  0.10737687     1.49930
C30         C  0.05138561  0.08422944  0.13031763     1.12930
O31         O  0.46975409  0.12690499  0.50180919    -1.00580
O32         O  0.03897006  0.80599793  0.02647772    -0.90240
C33         C  0.43990122  0.11370302  0.50110277     1.24210
O34         O  0.46988697  0.91779155  0.08372930    -1.00970
O35         O  0.03861385  0.80888857  0.44951540    -0.88370
O36         O  0.03952380  0.03249135  0.13576062    -0.87970
O37         O  0.03988477  0.12625280  0.39982910    -0.88000
Mn38       Mn  0.00125115  0.86763829  0.42933930     1.47860
O39         O  0.07290032  0.95015198  0.04189865    -0.76470
C40         C  0.06375577  0.11150073  0.99874935     1.17260
O41         O  0.43056951  0.95464383  0.44724059    -0.75200
O42         O  0.07281181  0.95160190  0.44574077    -0.74820
Mn43       Mn  0.50145809  0.11637347  0.05216569     1.51060
O44         O  0.46393890  0.03147956  0.13704478    -0.87170
O45         O  0.03273856  0.92420904  0.40290757    -0.94700
O46         O  0.04021696  0.11993792  0.10097790    -0.89710
C47         C  0.06286863  0.92931906  0.40822598     1.15050
C48         C  0.11164524  0.25827820  0.51317314     0.04960
C49         C  0.12808692  0.27328258  0.47207334    -0.11190
C50         C  0.15235664  0.31863261  0.47263523     0.02460
C51         C  0.16137176  0.34548361  0.51478676    -0.09720
C52         C  0.14887959  0.32570866  0.05207847     0.04950
C53         C  0.12296361  0.28367720  0.05177020    -0.09140
H54         H  0.12134819  0.25104951  0.43986756     0.10540
H55         H  0.18236936  0.37610819  0.51595099     0.08070
H56         H  0.11218125  0.26983674  0.08393462     0.07920
C57         C  0.39263091  0.26135297  0.50960466     0.04960
C58         C  0.38041000  0.27968641  0.46692874    -0.11190
C59         C  0.35470405  0.32207305  0.46552825     0.02460
C60         C  0.34038901  0.34339242  0.50672552    -0.09720
C61         C  0.35323578  0.32456109  0.04958698     0.04950
C62         C  0.37912071  0.28234112  0.05000462    -0.09140
H63         H  0.39108749  0.26158719  0.43520801     0.10540
H64         H  0.31860862  0.37218170  0.50541491     0.08070
H65         H  0.38913832  0.26809982  0.08245927     0.07920
C66         C  0.38640984  0.66848728  0.01728453     0.04960
C67         C  0.37228269  0.65331353  0.47527250    -0.11190
C68         C  0.34268320  0.61946762  0.47466924     0.02460
C69         C  0.32863474  0.59762771  0.01631316    -0.09720
C70         C  0.34249152  0.61635854  0.05853813     0.04950
C71         C  0.37162869  0.65132778  0.05882319    -0.09140
H72         H  0.38338665  0.66508477  0.44295205     0.10540
H73         H  0.30554176  0.57205412  0.01605674     0.08070
H74         H  0.38166637  0.66824488  0.09120502     0.07920
C75         C  0.11740403  0.67325187  0.01837962     0.04960
C76         C  0.13064558  0.65045232  0.47631060    -0.11190
C77         C  0.16033320  0.61684773  0.47656143     0.02460
C78         C  0.17554364  0.60316045  0.01856375    -0.09720
C79         C  0.16097363  0.62140503  0.06053210     0.04950
C80         C  0.13168025  0.65609767  0.06028561    -0.09140
H81         H  0.11977580  0.66131584  0.44370660     0.10540
H82         H  0.19872161  0.57781861  0.01867626     0.08070
H83         H  0.12110716  0.67259669  0.09252952     0.07920
O84         O  0.21306192  0.38977952  0.15969936    -0.86350
C85         C  0.30311593  0.41940857  0.39014554     1.13690
O86         O  0.25153666  0.48719329  0.21604882    -1.34160
O87         O  0.21588550  0.38194890  0.36212911    -0.87840
O88         O  0.21347870  0.47721381  0.12484337    -0.88500
O89         O  0.18025326  0.55941520  0.21855682    -0.77330
O90         O  0.21986581  0.38507441  0.26053183    -0.99410
C91         C  0.19042275  0.57881975  0.35267268     1.23740
O92         O  0.25151637  0.59392709  0.26752506    -1.34310
Mn93       Mn  0.28819083  0.52317084  0.26447154     1.82060
O94         O  0.18062007  0.55674437  0.31501670    -0.76400
O95         O  0.21602364  0.46824326  0.40250269    -0.85800
C96         C  0.31322763  0.58141905  0.35077096     1.14820
C97         C  0.20494897  0.41598869  0.39444057     1.09540
O98         O  0.32261906  0.55991487  0.21732820    -0.77340
O99         O  0.25203178  0.48458750  0.31080567    -1.31030
O100        O  0.28263448  0.59065345  0.17703176    -0.96550
C101        C  0.20229326  0.71949417  0.27298288     1.08250
Mn102      Mn  0.25259160  0.52489442  0.37712345     1.48570
O103        O  0.21417946  0.70415607  0.23378470    -0.85750
Mn104      Mn  0.25117556  0.53124410  0.15284678     1.49560
O105        O  0.28857270  0.38921950  0.15782288    -0.89630
C106        C  0.18999914  0.39800180  0.26231854     1.21450
C107        C  0.29968422  0.42463670  0.12818273     1.13510
Mn108      Mn  0.21519160  0.52264121  0.26522215     1.80970
O109        O  0.28309459  0.58613067  0.35647531    -0.94780
Mn110      Mn  0.25139411  0.39201011  0.20878659     1.49260
C111        C  0.20179825  0.42535420  0.13030604     1.10030
Mn112      Mn  0.25122286  0.64233211  0.33089448     1.49930
C113        C  0.29992507  0.72059596  0.27288775     1.12930
O114        O  0.22012790  0.59069819  0.17809393    -1.00580
O115        O  0.29112443  0.47063043  0.39967312    -0.90240
C116        C  0.19002081  0.58461497  0.18305339     1.24210
O117        O  0.22051855  0.58473484  0.35796083    -1.00970
O118        O  0.29137738  0.38449109  0.35905876    -0.88370
O119        O  0.28823574  0.70144379  0.31024729    -0.87970
O120        O  0.28836943  0.47690314  0.12343904    -0.88000
Mn121      Mn  0.25268909  0.38885867  0.31081710     1.47860
O122        O  0.32304394  0.55835700  0.31339247    -0.76470
C123        C  0.31273084  0.58420595  0.18163231     1.17260
O124        O  0.18168036  0.45171917  0.26385723    -0.75200
O125        O  0.32203534  0.45280276  0.26172072    -0.74820
Mn126      Mn  0.25153707  0.64643631  0.20837955     1.51060
O127        O  0.21311579  0.69957936  0.31056436    -0.87170
O128        O  0.28408874  0.38582886  0.25881249    -0.94700
O129        O  0.28915166  0.70400825  0.23338776    -0.89710
C130        C  0.31393084  0.39902589  0.25943399     1.15050
C131        C  0.14273657  0.25062300  0.24988704     0.04960
C132        C  0.13101929  0.22550635  0.20809517    -0.11190
C133        C  0.10526481  0.18313033  0.20802217     0.02460
C134        C  0.09156065  0.16622881  0.24991951    -0.09720
C135        C  0.10367518  0.18915140  0.29193066     0.04950
C136        C  0.12877052  0.23287415  0.29185306    -0.09140
H137        H  0.14145300  0.23972196  0.17582638     0.10540
H138        H  0.07011622  0.13658341  0.24982075     0.08070
H139        H  0.13780006  0.25216800  0.32408687     0.07920
C140        C  0.36645357  0.83895726  0.24362475     0.04960
C141        C  0.38105089  0.85600361  0.20190830    -0.11190
C142        C  0.41040103  0.89038390  0.20188107     0.02460
C143        C  0.42469510  0.90865481  0.24389777    -0.09720
C144        C  0.41019193  0.89385372  0.28591917     0.04950
C145        C  0.38070841  0.85961418  0.28571559    -0.09140
H146        H  0.37069332  0.83947862  0.16960067     0.10540
H147        H  0.44792382  0.93383703  0.24387115     0.08070
H148        H  0.36987423  0.84775422  0.31817908     0.07920
C149        C  0.13612925  0.83749227  0.24183499     0.04960
C150        C  0.12169942  0.85441172  0.19999400    -0.11190
C151        C  0.09239569  0.88906683  0.19988833     0.02460
C152        C  0.07801237  0.90753914  0.24191865    -0.09720
C153        C  0.09244527  0.89290569  0.28394391     0.04950
C154        C  0.12186136  0.85862337  0.28378016    -0.09140
H155        H  0.13213392  0.83768345  0.16772916     0.10540
H156        H  0.05481383  0.93282506  0.24190766     0.08070
H157        H  0.13270390  0.84710425  0.31624518     0.07920
C158        C  0.36084576  0.25105293  0.25067740     0.04960
C159        C  0.37300255  0.22609020  0.20900806    -0.11190
C160        C  0.39891796  0.18400345  0.20925239     0.02460
C161        C  0.41250925  0.16766985  0.25128537    -0.09720
C162        C  0.40001473  0.19063115  0.29314061     0.04950
C163        C  0.37460853  0.23374715  0.29278005    -0.09140
H164        H  0.36267011  0.23998305  0.17663841     0.10540
H165        H  0.43407547  0.13828494  0.25142655     0.08070
H166        H  0.36526030  0.25303768  0.32488941     0.07920
C167        C  0.17433168  0.76238187  0.27584522    -0.14610
C168        C  0.16500255  0.79539535  0.24016512    -0.29780
H169        H  0.16126211  0.76600111  0.30844255     0.14420
H170        H  0.17820555  0.78949789  0.20764955     0.14990
C171        C  0.32762832  0.76393071  0.27664575    -0.14610
C172        C  0.33754492  0.79696994  0.24131926    -0.29780
H173        H  0.33999422  0.76791202  0.30966888     0.14420
H174        H  0.32488498  0.79094284  0.20848000     0.14990
C175        C  0.16396564  0.35166340  0.26408768    -0.14610
C176        C  0.16962481  0.29552012  0.24923116    -0.29780
H177        H  0.13914078  0.36435225  0.27646518     0.14420
H178        H  0.19343538  0.28342658  0.23327031     0.14990
C179        C  0.34021913  0.35302225  0.25989119    -0.14610
C180        C  0.33380367  0.29555259  0.24993233    -0.29780
H181        H  0.36571156  0.36676683  0.26817850     0.14420
H182        H  0.30894577  0.28138598  0.23894951     0.14990
C183        C  0.17998492  0.60909662  0.10300742    -0.14610
C184        C  0.16702345  0.60129272  0.14536498    -0.29780
H185        H  0.20683618  0.60282045  0.09812454     0.14420
H186        H  0.14013555  0.60309720  0.15125642     0.14990
C187        C  0.17957655  0.60065144  0.43418844    -0.14610
C188        C  0.16722021  0.59477177  0.39108243    -0.29780
H189        H  0.20612437  0.59181117  0.43930766     0.14420
H190        H  0.14057560  0.59921604  0.38442299     0.14990
C191        C  0.32306636  0.60435046  0.10080182    -0.14610
C192        C  0.33570455  0.59950270  0.14356455    -0.29780
H193        H  0.29637984  0.59651539  0.09570532     0.14420
H194        H  0.36249738  0.60276029  0.14974646     0.14990
C195        C  0.32373574  0.60429230  0.43201440    -0.14610
C196        C  0.33633220  0.59822921  0.38898229    -0.29780
H197        H  0.29713472  0.59569265  0.43699929     0.14420
H198        H  0.36302559  0.60247035  0.38243690     0.14990
C199        C  0.32549335  0.40412975  0.09512803    -0.14610
C200        C  0.33747231  0.34804750  0.09262877    -0.29780
H201        H  0.33206308  0.43480150  0.06834290     0.14420
H202        H  0.33274101  0.31755651  0.12016841     0.14990
C203        C  0.34043313  0.34258716  0.42187885    -0.14610
C204        C  0.33068088  0.39973123  0.41934471    -0.29780
H205        H  0.33330178  0.30967084  0.39561015     0.14420
H206        H  0.33927681  0.43182467  0.44548720     0.14990
C207        C  0.16379051  0.34920325  0.09549137    -0.14610
C208        C  0.17542720  0.40540700  0.09817976    -0.29780
H209        H  0.16884257  0.31841348  0.12269401     0.14420
H210        H  0.16866132  0.43615307  0.07155379     0.14990
C211        C  0.17916015  0.39480950  0.42633592    -0.14610
C212        C  0.16994382  0.33739266  0.43032239    -0.29780
H213        H  0.16989949  0.42780608  0.45136310     0.14420
H214        H  0.17752723  0.30383871  0.40474238     0.14990
C215        C  0.07792547  0.11187668  0.33754852    -0.14610
C216        C  0.08789830  0.16894950  0.33492445    -0.29780
H217        H  0.08645871  0.07957340  0.31148626     0.14420
H218        H  0.08101817  0.20181995  0.36140760     0.14990
C219        C  0.08995441  0.15983032  0.16478716    -0.14610
C220        C  0.07795333  0.10382919  0.16226576    -0.29780
H221        H  0.08494497  0.19066358  0.13759725     0.14420
H222        H  0.08472002  0.07291934  0.18877322     0.14990
C223        C  0.08494766  0.21283446  0.51325352    -0.14610
C224        C  0.09000010  0.15747930  0.99703539    -0.29780
H225        H  0.06020803  0.22720611  0.02505014     0.14420
H226        H  0.11521883  0.14433465  0.48492189     0.14990
C227        C  0.41563159  0.17088601  0.33626080    -0.14610
C228        C  0.42547912  0.11380537  0.33915052    -0.29780
H229        H  0.42266694  0.20402826  0.36241305     0.14420
H230        H  0.41684506  0.08135283  0.31331123     0.14990
C231        C  0.42626699  0.10397982  0.16413937    -0.14610
C232        C  0.41432967  0.16006744  0.16620659    -0.29780
H233        H  0.41952701  0.07353294  0.19100944     0.14420
H234        H  0.41924572  0.19039125  0.13861390     0.14990
C235        C  0.41976474  0.21707844  0.51121042    -0.14610
C236        C  0.41355972  0.15962737  0.50088070    -0.29780
H237        H  0.44396865  0.22839811  0.01932707     0.14420
H238        H  0.38812825  0.14578880  0.49231888     0.14990
C239        C  0.42937747  0.90940694  0.32837288    -0.14610
C240        C  0.41702537  0.91536701  0.37155211    -0.29780
H241        H  0.45593412  0.91818295  0.32314484     0.14420
H242        H  0.39037069  0.91099027  0.37833008     0.14990
C243        C  0.41681306  0.90847058  0.11699408    -0.14610
C244        C  0.42964175  0.90227440  0.15949694    -0.29780
H245        H  0.38996319  0.90608641  0.11104542     0.14420
H246        H  0.45642762  0.90918969  0.16439274     0.14990
C247        C  0.41507101  0.71090807  0.01979549    -0.14610
C248        C  0.42431320  0.74508851  0.98481470    -0.29780
H249        H  0.42811432  0.71615329  0.05241092     0.14420
H250        H  0.41141018  0.74193312  0.95213054     0.14990
C251        C  0.08588900  0.91332523  0.36965625    -0.14610
C252        C  0.07341434  0.90871352  0.32654216    -0.29780
H253        H  0.11250380  0.90812015  0.37618733     0.14420
H254        H  0.04693894  0.91837019  0.32160755     0.14990
C255        C  0.07321992  0.90111441  0.15752216    -0.14610
C256        C  0.08608857  0.90859216  0.11509448    -0.29780
H257        H  0.04638735  0.90750046  0.16251782     0.14420
H258        H  0.11296433  0.90668542  0.10910649     0.14990
C259        C  0.08843823  0.71526171  0.02003640    -0.14610
C260        C  0.07834658  0.74709018  0.98405637    -0.29780
H261        H  0.07573572  0.72206046  0.05283924     0.14420
H262        H  0.09023845  0.74168989  0.45092849     0.14990
O263        O  0.46358245  0.03760481  0.86026646    -0.86350
C264        C  0.04978771  0.78924318  0.48696803     1.13690
O265        O  0.00157663  0.02578572  0.94962195    -1.34160
O266        O  0.46347160  0.80764838  0.95095679    -0.87840
O267        O  0.46284679  0.12351974  0.90110374    -0.88500
O268        O  0.43105175  0.05611814  0.99899638    -0.77330
O269        O  0.46974071  0.92246179  0.90429855    -0.99410
C270        C  0.44043666  0.92794106  0.57898964     1.23730
O271        O  0.50189798  0.02514510  0.54510202    -1.34310
Mn272      Mn  0.03832483  0.98655151  0.49532456     1.82050
O273        O  0.43063467  0.95261400  0.54339597    -0.76400
O274        O  0.46412160  0.80806122  0.52785873    -0.85800
C275        C  0.06303670  0.92425714  0.57754865     1.14820
C276        C  0.45286424  0.79210313  0.48846800     1.09540
O277        O  0.07231697  0.05692767  0.49708263    -0.77340
O278        O  0.00152404  0.91595485  0.49275858    -1.31030
O279        O  0.03443081  0.12406173  0.50062310    -0.96550
C280        C  0.45314699  0.08870541  0.63213703     1.08250
Mn281      Mn  0.50170186  0.86577072  0.55292967     1.48570
O282        O  0.46461852  0.12406751  0.60273161    -0.85750
Mn283      Mn  0.00144952  0.12153773  0.94976967     1.49560
O284        O  0.03906054  0.04104286  0.85927249    -0.89630
C285        C  0.43964613  0.92824676  0.90979832     1.21450
C286        C  0.05048344  0.09284533  0.86805020     1.13510
Mn287      Mn  0.46465776  0.98535831  0.99654037     1.80970
O288        O  0.03289922  0.91849380  0.58245454    -0.94780
Mn289      Mn  0.50108065  0.98256967  0.88419351     1.49260
C290        C  0.45159974  0.08883093  0.86949217     1.10030
Mn291      Mn  0.00191458  0.97825986  0.60743157     1.49930
C292        C  0.05150200  0.08357132  0.63048021     1.12930
O293        O  0.46901602  0.12312753  0.00173305    -1.00580
O294        O  0.03852064  0.80535264  0.52634136    -0.90240
C295        C  0.43915578  0.10992024  0.00093340     1.24210
O296        O  0.47053825  0.92184271  0.58379789    -1.00970
O297        O  0.03922254  0.80969986  0.94966180    -0.88370
O298        O  0.03973145  0.03175357  0.63585060    -0.87970
O299        O  0.03896363  0.12731985  0.89964841    -0.88000
Mn300      Mn  0.00155466  0.86799035  0.92928508     1.47860
O301        O  0.07293601  0.94922837  0.54204007    -0.76470
C302        C  0.06426069  0.11077860  0.49910152     1.17260
O303        O  0.42986189  0.95088520  0.94733450    -0.75200
O304        O  0.07276769  0.95263360  0.94566810    -0.74820
Mn305      Mn  0.50213528  0.12050482  0.55226543     1.51060
O306        O  0.46433205  0.03628295  0.63701614    -0.87170
O307        O  0.03274669  0.92501086  0.90289432    -0.94700
O308        O  0.04025813  0.11930320  0.60122686    -0.89710
C309        C  0.06285894  0.93031568  0.90816051     1.15050
C310        C  0.11145696  0.25853316  0.00990017     0.04960
C311        C  0.12586723  0.27577244  0.96806907    -0.11190
C312        C  0.15116613  0.31916148  0.96820117     0.02460
C313        C  0.16300680  0.34223989  0.01033208    -0.09720
C314        C  0.14522729  0.33124536  0.55573958     0.04950
C315        C  0.12015839  0.28769860  0.55480247    -0.09140
H316        H  0.11698403  0.25643856  0.93577377     0.10540
H317        H  0.18447964  0.37183786  0.01067854     0.08070
H318        H  0.10789287  0.27569898  0.58647691     0.07920
C319        C  0.39175651  0.25786074  0.00841253     0.04960
C320        C  0.37837494  0.27558757  0.96619641    -0.11190
C321        C  0.35297180  0.31872902  0.96561287     0.02460
C322        C  0.34014081  0.34149744  0.00737851    -0.09720
C323        C  0.35250445  0.32635936  0.54938191     0.04950
C324        C  0.37868942  0.28477136  0.55078119    -0.09140
H325        H  0.38803047  0.25662262  0.93415234     0.10540
H326        H  0.31868965  0.37113009  0.00697564     0.08070
H327        H  0.38789966  0.27018441  0.58357824     0.07920
C328        C  0.38633845  0.67368956  0.51754582     0.04960
C329        C  0.37263846  0.64741007  0.97504031    -0.11190
C330        C  0.34337328  0.61263152  0.97443464     0.02460
C331        C  0.32786819  0.60459923  0.51644953    -0.09720
C332        C  0.34201300  0.62234166  0.55865350     0.04950
C333        C  0.37148655  0.65647013  0.55907387    -0.09140
H334        H  0.38372231  0.65938785  0.94275313     0.10540
H335        H  0.30455309  0.57965644  0.51614277     0.08070
H336        H  0.38173177  0.67264354  0.59154884     0.07920
C337        C  0.11616330  0.67183147  0.51807264     0.04960
C338        C  0.13191155  0.65239602  0.97649598    -0.11190
C339        C  0.16131126  0.61803250  0.97647590     0.02460
C340        C  0.17483126  0.60335586  0.51880036    -0.09720
C341        C  0.16025253  0.62222534  0.56060389     0.04950
C342        C  0.13067958  0.65600035  0.56008974    -0.09140
H343        H  0.12130043  0.66414638  0.94395826     0.10540
H344        H  0.19822646  0.57866912  0.51915563     0.08070
H345        H  0.12009858  0.67300991  0.59218533     0.07920
O346        O  0.20959756  0.39468801  0.65970165    -0.86350
C347        C  0.30154977  0.41652154  0.88886110     1.13690
O348        O  0.25034970  0.48882612  0.71472904    -1.34160
O349        O  0.21487187  0.38276791  0.85995454    -0.87840
O350        O  0.21123779  0.48171378  0.62442599    -0.88500
O351        O  0.17970239  0.56261564  0.71872661    -0.77330
O352        O  0.21826143  0.38720210  0.75914893    -0.99410
C353        C  0.19084006  0.58104646  0.85223674     1.23740
O354        O  0.25163937  0.59468763  0.76704441    -1.34310
Mn355      Mn  0.28765065  0.52291389  0.76285698     1.82060
O356        O  0.18064266  0.55908771  0.81477739    -0.76400
O357        O  0.21449724  0.46925938  0.90002406    -0.85800
C358        C  0.31363587  0.57819153  0.84990461     1.14820
C359        C  0.20334455  0.41720919  0.89159933     1.09540
O360        O  0.32207115  0.55987826  0.71589426    -0.77340
O361        O  0.25148790  0.48467110  0.80927051    -1.31030
O362        O  0.28213881  0.59201772  0.67615627    -0.96550
C363        C  0.20367553  0.72174791  0.77385722     1.08250
Mn364      Mn  0.25214563  0.52423523  0.87585377     1.48570
O365        O  0.21483823  0.70594251  0.73440693    -0.85750
Mn366      Mn  0.24993392  0.53379603  0.65195075     1.49560
O367        O  0.28525486  0.39033531  0.65481515    -0.89630
C368        C  0.18847550  0.40047342  0.76155773     1.21450
C369        C  0.29703014  0.42600604  0.62586631     1.13510
Mn370      Mn  0.21463082  0.52442215  0.76458137     1.80970
O371        O  0.28359313  0.58430650  0.85574896    -0.94780
Mn372      Mn  0.24895982  0.39376595  0.70682270     1.49260
C373        C  0.19833483  0.43105753  0.63095402     1.10030
Mn374      Mn  0.25243108  0.64239389  0.83062027     1.49930
C375        C  0.30132040  0.71967194  0.77223234     1.12930
O376        O  0.21958443  0.59347760  0.67811081    -1.00580
O377        O  0.28955124  0.46768078  0.89864709    -0.90240
C378        C  0.18947110  0.58790196  0.68329298     1.24210
O379        O  0.22101855  0.58581801  0.85727982    -1.00970
O380        O  0.29046856  0.38267224  0.85658953    -0.88370
O381        O  0.29019384  0.69997308  0.80975309    -0.87970
O382        O  0.28645815  0.47886175  0.62172806    -0.88000
Mn383      Mn  0.25158218  0.38897308  0.80857717     1.47860
O384        O  0.32309657  0.55569066  0.81210369    -0.76470
C385        C  0.31222564  0.58508397  0.68058521     1.17260
O386        O  0.18043469  0.45433051  0.76326321    -0.75200
O387        O  0.32080377  0.45160299  0.75743391    -0.74820
Mn388      Mn  0.25159128  0.64793921  0.70824901     1.51060
O389        O  0.21496656  0.70175002  0.81117427    -0.87170
O390        O  0.28248453  0.38518069  0.75563023    -0.94700
O391        O  0.28966887  0.70436590  0.73296768    -0.89710
C392        C  0.31237969  0.39799247  0.75435999     1.15050
C393        C  0.14130443  0.25287621  0.74961837     0.04960
C394        C  0.13013080  0.22670930  0.70791492    -0.11190
C395        C  0.10475250  0.18365122  0.70789520     0.02460
C396        C  0.09089906  0.16704473  0.74976512    -0.09720
C397        C  0.10253160  0.19092314  0.79173409     0.04950
C398        C  0.12721471  0.23539514  0.79158542    -0.09140
H399        H  0.14070016  0.24060959  0.67564085     0.10540
H400        H  0.06969639  0.13685979  0.74965618     0.08070
H401        H  0.13588884  0.25536842  0.82376866     0.07920
C402        C  0.36702066  0.83893783  0.74247755     0.04960
C403        C  0.38161201  0.85661838  0.70090890    -0.11190
C404        C  0.41075008  0.89166452  0.70127385     0.02460
C405        C  0.42480774  0.90974332  0.74350844    -0.09720
C406        C  0.41022377  0.89423226  0.78530643     0.04950
C407        C  0.38093957  0.85962861  0.78468737    -0.09140
H408        H  0.37144128  0.84015117  0.66847216     0.10540
H409        H  0.44790951  0.93529546  0.74383418     0.08070
H410        H  0.36995548  0.84746932  0.81698075     0.07920
C411        C  0.13637318  0.83772090  0.74236918     0.04960
C412        C  0.12178852  0.85381905  0.70038582    -0.11190
C413        C  0.09227503  0.88790656  0.70002752     0.02460
C414        C  0.07779496  0.90657625  0.74193913    -0.09720
C415        C  0.09235654  0.89277482  0.78406568     0.04950
C416        C  0.12196609  0.85904045  0.78415730    -0.09140
H417        H  0.13231251  0.83696787  0.66821020     0.10540
H418        H  0.05445730  0.93144669  0.74176054     0.08070
H419        H  0.13281386  0.84807804  0.81672695     0.07920
C420        C  0.36005917  0.25054664  0.75510672     0.04960
C421        C  0.37411815  0.23101770  0.71273584    -0.11190
C422        C  0.39978978  0.18811443  0.71182126     0.02460
C423        C  0.41225005  0.16801034  0.75345902    -0.09720
C424        C  0.39841058  0.18670580  0.79568057     0.04950
C425        C  0.37225007  0.22821847  0.79645737    -0.09140
H426        H  0.36476510  0.24832703  0.68086527     0.10540
H427        H  0.43396557  0.13895220  0.75309992     0.08070
H428        H  0.36169685  0.24363456  0.82902979     0.07920
C429        C  0.17593223  0.76509167  0.77716831    -0.14610
C430        C  0.16549708  0.79612994  0.74093168    -0.29780
H431        H  0.16379819  0.77018352  0.81033663     0.14420
H432        H  0.17793570  0.78872761  0.70800127     0.14990
C433        C  0.32930433  0.76235901  0.77537198    -0.14610
C434        C  0.33835788  0.79652768  0.74023208    -0.29780
H435        H  0.34248867  0.76518580  0.80784351     0.14420
H436        H  0.32506781  0.79149122  0.70779073     0.14990
C437        C  0.16233259  0.35430085  0.76346787    -0.14610
C438        C  0.16803225  0.29805819  0.74882891    -0.29780
H439        H  0.13752337  0.36707252  0.77584442     0.14420
H440        H  0.19186360  0.28596666  0.73292262     0.14990
C441        C  0.33845470  0.35181130  0.74854628    -0.14610
C442        C  0.33257875  0.29441382  0.75687810    -0.29780
H443        H  0.36364674  0.36570907  0.73928580     0.14420
H444        H  0.30823030  0.28053898  0.76955063     0.14990
C445        C  0.17940763  0.61150483  0.60317390    -0.14610
C446        C  0.16646994  0.60432329  0.64561126    -0.29780
H447        H  0.20628615  0.60562308  0.59830847     0.14420
H448        H  0.13957225  0.60577900  0.65147254     0.14990
C449        C  0.18045237  0.60218661  0.93395656    -0.14610
C450        C  0.16795648  0.59732107  0.89088464    -0.29780
H451        H  0.20693000  0.59255908  0.93890494     0.14420
H452        H  0.14132991  0.60248618  0.88441512     0.14990
C453        C  0.32252634  0.61005562  0.60074350    -0.14610
C454        C  0.33528508  0.60166507  0.64297477    -0.29780
H455        H  0.29566640  0.60429638  0.59572872     0.14420
H456        H  0.36216694  0.60289762  0.64885154     0.14990
C457        C  0.32454645  0.59707542  0.93166403    -0.14610
C458        C  0.33694310  0.59310750  0.88836845    -0.29780
H459        H  0.29807857  0.58730579  0.93665485     0.14420
H460        H  0.36354162  0.59843594  0.88162571     0.14990
C461        C  0.32303080  0.40531940  0.59326177    -0.14610
C462        C  0.33555920  0.34956331  0.59162620    -0.29780
H463        H  0.32987243  0.43597551  0.56659107     0.14420
H464        H  0.33073970  0.31932032  0.61930312     0.14990
C465        C  0.33773301  0.33870129  0.92226922    -0.14610
C466        C  0.32835605  0.39599077  0.91912919    -0.29780
H467        H  0.33046993  0.30560912  0.89620360     0.14420
H468        H  0.33707870  0.42823652  0.94506322     0.14990
C469        C  0.15802895  0.35731466  0.59948853    -0.14610
C470        C  0.17049042  0.41293854  0.60077955    -0.29780
H471        H  0.16255977  0.32759175  0.62756220     0.14420
H472        H  0.16423998  0.44293635  0.57341511     0.14990
C473        C  0.17696334  0.39640984  0.92257694    -0.14610
C474        C  0.16719171  0.33923845  0.92531060    -0.29780
H475        H  0.16832790  0.42864691  0.94861939     0.14420
H476        H  0.17411727  0.30638351  0.89883874     0.14990
C477        C  0.07720843  0.11345111  0.83759013    -0.14610
C478        C  0.08670689  0.17075808  0.83470679    -0.29780
H479        H  0.08613255  0.08111139  0.81181001     0.14420
H480        H  0.07941457  0.20370717  0.86091808     0.14990
C481        C  0.08987399  0.15951127  0.66465602    -0.14610
C482        C  0.07800080  0.10341268  0.66243165    -0.29780
H483        H  0.08493212  0.18994181  0.63717279     0.14420
H484        H  0.08469757  0.07282052  0.68918876     0.14990
C485        C  0.08429598  0.21416987  0.01037307    -0.14610
C486        C  0.09047936  0.15693820  0.49765297    -0.29780
H487        H  0.06122478  0.22429829  0.52974120     0.14420
H488        H  0.11500012  0.14411848  0.98580567     0.14990
C489        C  0.41361494  0.16506732  0.83836785    -0.14610
C490        C  0.42462665  0.10859461  0.83936864    -0.29780
H491        H  0.41963997  0.19700300  0.86586492     0.14420
H492        H  0.41694479  0.07711393  0.81226339     0.14990
C493        C  0.42695819  0.10937079  0.66467304    -0.14610
C494        C  0.41581343  0.16608199  0.66840450    -0.29780
H495        H  0.41944471  0.07790250  0.69044077     0.14420
H496        H  0.42151219  0.19769723  0.64198678     0.14990
C497        C  0.41901113  0.21363290  0.00930247    -0.14610
C498        C  0.41274569  0.15584553  0.00032850    -0.29780
H499        H  0.44456834  0.23153485  0.52219491     0.14420
H500        H  0.38720790  0.14170091  0.99274480     0.14990
C501        C  0.42911459  0.90919717  0.82804978    -0.14610
C502        C  0.41657423  0.91309099  0.87122512    -0.29780
H503        H  0.45561720  0.91876156  0.82316534     0.14420
H504        H  0.38993396  0.90799684  0.87777628     0.14990
C505        C  0.41737522  0.91137433  0.61663403    -0.14610
C506        C  0.43008224  0.90447985  0.65912603    -0.29780
H507        H  0.39055405  0.90876180  0.61049804     0.14420
H508        H  0.45682772  0.91161904  0.66425597     0.14990
C509        C  0.41532158  0.71550009  0.52005523    -0.14610
C510        C  0.42496856  0.74917034  0.48493763    -0.29780
H511        H  0.42823840  0.72080444  0.55276007     0.14420
H512        H  0.41221296  0.74597956  0.45215756     0.14990
C513        C  0.08587328  0.91425452  0.86962354    -0.14610
C514        C  0.07332847  0.90890961  0.82658282    -0.29780
H515        H  0.11251835  0.90947074  0.87612043     0.14420
H516        H  0.04680320  0.91813498  0.82164807     0.14990
C517        C  0.07307938  0.89935610  0.65754520    -0.14610
C518        C  0.08600566  0.90747482  0.61522758    -0.29780
H519        H  0.04619094  0.90508998  0.66242172     0.14420
H520        H  0.11291089  0.90616655  0.60941090     0.14990
C521        C  0.08709199  0.71342360  0.51954160    -0.14610
C522        C  0.07748979  0.74588430  0.48373924    -0.29780
H523        H  0.07410765  0.71981284  0.55218214     0.14420
H524        H  0.09076433  0.74253413  0.95104792     0.14990
O525        O  0.96424545  0.04095656  0.35972947    -0.86350
C526        C  0.54974215  0.78786989  0.98831961     1.13690
O527        O  0.50180401  0.02735600  0.45038648    -1.34160
O528        O  0.96348231  0.80989019  0.44995702    -0.87840
O529        O  0.96425484  0.12700989  0.40041201    -0.88500
O530        O  0.93188375  0.05851080  0.49808535    -0.77330
O531        O  0.97015142  0.92500463  0.40327371    -0.99410
C532        C  0.94032972  0.92580297  0.07807838     1.23730
O533        O  0.00179701  0.02290547  0.04427562    -1.34310
Mn534      Mn  0.53765911  0.98521613  0.99619612     1.82050
O535        O  0.93051882  0.95061790  0.04255328    -0.76400
O536        O  0.96400660  0.80622820  0.02664693    -0.85800
C537        C  0.56251534  0.92344609  0.07848427     1.14820
C538        C  0.95271045  0.79031116  0.98729158     1.09540
O539        O  0.57137614  0.05600057  0.99779117    -0.77340
O540        O  0.50109605  0.91418587  0.99374553    -1.31030
O541        O  0.53342783  0.12308734  0.00099510    -0.96550
C542        C  0.95322561  0.08528350  0.13139986     1.08250
Mn543      Mn  0.00157584  0.86366497  0.05176473     1.48570
O544        O  0.96464968  0.12083021  0.10209283    -0.85750
Mn545      Mn  0.50171510  0.12307205  0.45031046     1.49560
O546        O  0.53933729  0.04223587  0.36002259    -0.89630
C547        C  0.94006499  0.93080660  0.40886150     1.21450
C548        C  0.55082778  0.09403398  0.36865127     1.13510
Mn549      Mn  0.96528778  0.98742011  0.49571441     1.80970
O550        O  0.53240067  0.91735546  0.08342373    -0.94780
Mn551      Mn  0.00165230  0.98513157  0.38330698     1.49260
C552        C  0.95272535  0.09261681  0.36882676     1.10030
Mn553      Mn  0.50130132  0.97707791  0.10824814     1.49930
C554        C  0.55074595  0.08290515  0.13102787     1.12930
O555        O  0.97012373  0.12499742  0.50107824    -1.00580
O556        O  0.53834892  0.80380599  0.02766987    -0.90240
C557        C  0.94022451  0.11219972  0.49998579     1.24210
O558        O  0.97042707  0.91946748  0.08278754    -1.00970
O559        O  0.53931216  0.81145508  0.45082226    -0.88370
O560        O  0.53898981  0.03108678  0.13656315    -0.87970
O561        O  0.53935575  0.12866001  0.40020650    -0.88000
Mn562      Mn  0.50173883  0.86959168  0.43037035     1.47860
O563        O  0.57234227  0.94844193  0.04296223    -0.76470
C564        C  0.56328031  0.10985755  0.99947820     1.17260
O565        O  0.93036913  0.95338100  0.44646529    -0.75200
O566        O  0.57300029  0.95412040  0.44666733    -0.74820
Mn567      Mn  0.00208411  0.11810931  0.05164133     1.51060
O568        O  0.96449756  0.03302665  0.13633509    -0.87170
O569        O  0.53300908  0.92637663  0.40388501    -0.94700
O570        O  0.53949243  0.11844212  0.10162330    -0.89710
C571        C  0.56312862  0.93160230  0.40918267     1.15050
C572        C  0.61112921  0.26054870  0.50964235     0.04960
C573        C  0.62522869  0.27769612  0.46762295    -0.11190
C574        C  0.65071360  0.32064336  0.46745577     0.02460
C575        C  0.66303016  0.34338860  0.50938957    -0.09720
C576        C  0.64883276  0.32564580  0.05198852     0.04950
C577        C  0.62323129  0.28291145  0.05237435    -0.09140
H578        H  0.61603167  0.25851886  0.43544147     0.10540
H579        H  0.68468390  0.37256511  0.50939663     0.08070
H580        H  0.61295841  0.26901166  0.08482692     0.07920
C581        C  0.89327861  0.26034826  0.50988039     0.04960
C582        C  0.87949625  0.27783355  0.46779655    -0.11190
C583        C  0.85420737  0.32124274  0.46749275     0.02460
C584        C  0.84179367  0.34419054  0.50940236    -0.09720
C585        C  0.85435673  0.32598996  0.05057556     0.04950
C586        C  0.88042187  0.28413941  0.05036904    -0.09140
H587        H  0.88876189  0.25849313  0.43565802     0.10540
H588        H  0.82025378  0.37363105  0.50932408     0.08070
H589        H  0.89091042  0.26998059  0.08256892     0.07920
C590        C  0.88619945  0.67246199  0.01745739     0.04960
C591        C  0.87247181  0.65021759  0.47582718    -0.11190
C592        C  0.84319910  0.61553082  0.47556285     0.02460
C593        C  0.82779056  0.60324836  0.01745463    -0.09720
C594        C  0.84224754  0.62133662  0.05940711     0.04950
C595        C  0.87167990  0.65552670  0.05926590    -0.09140
H596        H  0.88340414  0.66198506  0.44340938     0.10540
H597        H  0.80450303  0.57824077  0.01755760     0.08070
H598        H  0.88216497  0.67193739  0.09152924     0.07920
C599        C  0.61647633  0.67049711  0.01846457     0.04960
C600        C  0.63151556  0.65321179  0.47602669    -0.11190
C601        C  0.66099029  0.61897231  0.47573258     0.02460
C602        C  0.67495976  0.60141508  0.01781870    -0.09720
C603        C  0.66075031  0.61982677  0.05998018     0.04950
C604        C  0.63128339  0.65399931  0.06013727    -0.09140
H605        H  0.62068873  0.66493635  0.44358928     0.10540
H606        H  0.69828630  0.57650070  0.01764072     0.08070
H607        H  0.62097952  0.67070572  0.09248808     0.07920
O608        O  0.71392705  0.39029497  0.15872767    -0.86350
C609        C  0.80166412  0.41833016  0.39125816     1.13690
O610        O  0.75195998  0.48779193  0.21566961    -1.34160
O611        O  0.71482123  0.38354831  0.36016092    -0.87840
O612        O  0.71436894  0.47772589  0.12392235    -0.88500
O613        O  0.68074048  0.56005241  0.21807590    -0.77330
O614        O  0.72000335  0.38563549  0.25941042    -0.99410
C615        C  0.69074003  0.58066143  0.35174422     1.23740
O616        O  0.75198212  0.59448003  0.26729243    -1.34310
Mn617      Mn  0.78853945  0.52353365  0.26426397     1.82060
O618        O  0.68089585  0.55792542  0.31432649    -0.76400
O619        O  0.71459374  0.46991411  0.40045382    -0.85800
C620        C  0.81355421  0.58024546  0.35122977     1.14820
C621        C  0.70318367  0.41814102  0.39161193     1.09540
O622        O  0.82312552  0.56058758  0.21739078    -0.77340
O623        O  0.75218779  0.48502454  0.31031837    -1.31030
O624        O  0.78306932  0.59143252  0.17730752    -0.96550
C625        C  0.70313530  0.72061269  0.27306365     1.08250
Mn626      Mn  0.75217674  0.52527366  0.37667361     1.48570
O627        O  0.71433199  0.70456104  0.23363033    -0.85750
Mn628      Mn  0.75186523  0.53196932  0.15254994     1.49560
O629        O  0.78950290  0.39020154  0.15794821    -0.89630
C630        C  0.69014046  0.39872373  0.26103685     1.21450
C631        C  0.80086935  0.42584656  0.12866692     1.13510
Mn632      Mn  0.71554227  0.52332680  0.26473801     1.80970
O633        O  0.78345551  0.58578702  0.35681471    -0.94780
Mn634      Mn  0.75193437  0.39257504  0.20825395     1.49260
C635        C  0.70270653  0.42579573  0.12927591     1.10030
Mn636      Mn  0.75213951  0.64282520  0.33068558     1.49930
C637        C  0.80079276  0.72062932  0.27252461     1.12930
O638        O  0.72057212  0.59129474  0.17750470    -1.00580
O639        O  0.78976810  0.46973944  0.40039159    -0.90240
C640        C  0.69048125  0.58495913  0.18246954     1.24210
O641        O  0.72086397  0.58594505  0.35708500    -1.00970
O642        O  0.79048493  0.38389515  0.35944722    -0.88370
O643        O  0.78969751  0.70090870  0.31004678    -0.87970
O644        O  0.78943359  0.47799051  0.12368760    -0.88000
Mn645      Mn  0.75242282  0.38926573  0.31014822     1.47860
O646        O  0.82332494  0.55793898  0.31356640    -0.76470
C647        C  0.81319167  0.58543111  0.18194262     1.17260
O648        O  0.68194042  0.45250347  0.26303030    -0.75200
O649        O  0.82226124  0.45302735  0.26153876    -0.74820
Mn650      Mn  0.75182460  0.64708996  0.20821552     1.51060
O651        O  0.71455500  0.70119527  0.31046657    -0.87170
O652        O  0.78435001  0.38592777  0.25868526    -0.94700
O653        O  0.78930702  0.70485408  0.23324032    -0.89710
C654        C  0.81418792  0.39922688  0.25946954     1.15050
C655        C  0.64221439  0.25163266  0.24878047     0.04960
C656        C  0.63059077  0.22544193  0.20728440    -0.11190
C657        C  0.60482288  0.18306101  0.20770592     0.02460
C658        C  0.59103771  0.16717580  0.24980496    -0.09720
C659        C  0.60305624  0.19105420  0.29156445     0.04950
C660        C  0.62813248  0.23483805  0.29097012    -0.09140
H661        H  0.64109662  0.23885705  0.17483756     0.10540
H662        H  0.56960119  0.13752649  0.25005759     0.08070
H663        H  0.63709985  0.25482730  0.32299251     0.07920
C664        C  0.86681277  0.83940600  0.24238238     0.04960
C665        C  0.88145215  0.85636890  0.20065195    -0.11190
C666        C  0.91072343  0.89102552  0.20067746     0.02460
C667        C  0.92487132  0.90955964  0.24273780    -0.09720
C668        C  0.91027782  0.89482371  0.28471813     0.04950
C669        C  0.88087447  0.86045178  0.28444267    -0.09140
H670        H  0.87120746  0.83960450  0.16834416     0.10540
H671        H  0.94805382  0.93487769  0.24278262     0.08070
H672        H  0.86991601  0.84876332  0.31686661     0.07920
C673        C  0.63619428  0.83772516  0.24277901     0.04960
C674        C  0.62146751  0.85410531  0.20100903    -0.11190
C675        C  0.59206185  0.88843160  0.20098507     0.02460
C676        C  0.57783996  0.90717627  0.24303690    -0.09720
C677        C  0.59253190  0.89311508  0.28503552     0.04950
C678        C  0.62205181  0.85903085  0.28479901    -0.09140
H679        H  0.63178643  0.83721609  0.16871936     0.10540
H680        H  0.55457642  0.93227521  0.24306729     0.08070
H681        H  0.63304574  0.84782617  0.31724593     0.07920
C682        C  0.86137867  0.25145219  0.25121153     0.04960
C683        C  0.87380482  0.22737563  0.20938172    -0.11190
C684        C  0.89980632  0.18542383  0.20939091     0.02460
C685        C  0.91330502  0.16855367  0.25133472    -0.09720
C686        C  0.90057830  0.19068798  0.29330400     0.04950
C687        C  0.87501262  0.23351458  0.29321125    -0.09140
H688        H  0.86353483  0.24169062  0.17709613     0.10540
H689        H  0.93492576  0.13928150  0.25133710     0.08070
H690        H  0.86545605  0.25211338  0.32543845     0.07920
C691        C  0.67525837  0.76367187  0.27650866    -0.14610
C692        C  0.66520714  0.79591477  0.24079366    -0.29780
H693        H  0.66282854  0.76797497  0.30953657     0.14420
H694        H  0.67787258  0.78942387  0.20792993     0.14990
C695        C  0.82860413  0.76376588  0.27572618    -0.14610
C696        C  0.83800689  0.79721628  0.24034077    -0.29780
H697        H  0.84148507  0.76730089  0.30840078     0.14420
H698        H  0.82498017  0.79150764  0.20774933     0.14990
C699        C  0.66395542  0.35255274  0.26285066    -0.14610
C700        C  0.66921902  0.29643131  0.24758055    -0.29780
H701        H  0.63931155  0.36539096  0.27581305     0.14420
H702        H  0.69279953  0.28426513  0.23100935     0.14990
C703        C  0.84057707  0.35336009  0.25970119    -0.14610
C704        C  0.83415984  0.29563993  0.25079741    -0.29780
H705        H  0.86618116  0.36744321  0.26692188     0.14420
H706        H  0.80911168  0.28092518  0.24117075     0.14990
C707        C  0.68013739  0.60815074  0.10223845    -0.14610
C708        C  0.66739694  0.60105615  0.14478887    -0.29780
H709        H  0.70696105  0.60182027  0.09711239     0.14420
H710        H  0.64053512  0.60288467  0.15089783     0.14990
C711        C  0.68009813  0.60323835  0.43316435    -0.14610
C712        C  0.66761559  0.59722047  0.39013428    -0.29780
H713        H  0.70666212  0.59440459  0.43815113     0.14420
H714        H  0.64094613  0.60163948  0.38363148     0.14990
C715        C  0.82311141  0.60931362  0.10183750    -0.14610
C716        C  0.83608740  0.60193292  0.14411256    -0.29780
H717        H  0.79627093  0.60295222  0.09706896     0.14420
H718        H  0.86297329  0.60381923  0.14985718     0.14990
C719        C  0.82427157  0.59976230  0.43295225    -0.14610
C720        C  0.83668310  0.59575930  0.38969744    -0.29780
H721        H  0.79783335  0.58979624  0.43799694     0.14420
H722        H  0.86327015  0.60127155  0.38296658     0.14990
C723        C  0.82714033  0.40565736  0.09627687    -0.14610
C724        C  0.83904655  0.34953291  0.09384277    -0.29780
H725        H  0.83386381  0.43632131  0.06954658     0.14420
H726        H  0.83413423  0.31892888  0.12124673     0.14990
C727        C  0.83852488  0.34114959  0.42439884    -0.14610
C728        C  0.82852737  0.39820565  0.42161346    -0.29780
H729        H  0.83161407  0.30809815  0.39811520     0.14420
H730        H  0.83705733  0.43060887  0.44755257     0.14990
C731        C  0.66426061  0.34963003  0.09500691    -0.14610
C732        C  0.67633378  0.40565334  0.09712293    -0.29780
H733        H  0.66914715  0.31925656  0.12254616     0.14420
H734        H  0.66965506  0.43622571  0.07034898     0.14990
C735        C  0.67631387  0.39776885  0.42186144    -0.14610
C736        C  0.66650757  0.34063994  0.42447307    -0.29780
H737        H  0.66755426  0.43003823  0.44781162     0.14420
H738        H  0.67361279  0.30769414  0.39816087     0.14990
C739        C  0.57757497  0.11432651  0.33802721    -0.14610
C740        C  0.58724835  0.17151194  0.33478087    -0.29780
H741        H  0.58637771  0.08173689  0.31235113     0.14420
H742        H  0.58008803  0.20477996  0.36081927     0.14990
C743        C  0.58952549  0.15880924  0.16472362    -0.14610
C744        C  0.57727725  0.10292097  0.16293189    -0.29780
H745        H  0.58473493  0.18899146  0.13702790     0.14420
H746        H  0.58386151  0.07253440  0.18987808     0.14990
C747        C  0.58404622  0.21617979  0.51034374    -0.14610
C748        C  0.58959073  0.15592799  0.99757472    -0.29780
H749        H  0.56054065  0.22508373  0.02785321     0.14420
H750        H  0.61530195  0.14572759  0.48800291     0.14990
C751        C  0.91606026  0.17027137  0.33629671    -0.14610
C752        C  0.92590248  0.11313335  0.33867031    -0.29780
H753        H  0.92302501  0.20301198  0.36278530     0.14420
H754        H  0.91730843  0.08107811  0.31251230     0.14990
C755        C  0.92705454  0.10569166  0.16383483    -0.14610
C756        C  0.91527930  0.16189279  0.16624785    -0.29780
H757        H  0.92021752  0.07503930  0.19051997     0.14420
H758        H  0.92029491  0.19247798  0.13886360     0.14990
C759        C  0.92026035  0.21559463  0.51069251    -0.14610
C760        C  0.91411952  0.15855867  0.49877788    -0.29780
H761        H  0.94500689  0.23056365  0.01765294     0.14420
H762        H  0.88888729  0.14529242  0.48870090     0.14990
C763        C  0.92928710  0.91041917  0.32728239    -0.14610
C764        C  0.91686781  0.91518890  0.37048988    -0.29780
H765        H  0.95579440  0.91978174  0.32220313     0.14420
H766        H  0.89023926  0.91027352  0.37721142     0.14990
C767        C  0.91729837  0.90967969  0.11588051    -0.14610
C768        C  0.93006120  0.90296775  0.15836436    -0.29780
H769        H  0.89044905  0.90747054  0.10989068     0.14420
H770        H  0.95685247  0.90970662  0.16335365     0.14990
C771        C  0.91520061  0.71421390  0.01940927    -0.14610
C772        C  0.92482833  0.74735264  0.98396669    -0.29780
H773        H  0.92818707  0.71992782  0.05203215     0.14420
H774        H  0.91206657  0.74378185  0.95120982     0.14990
C775        C  0.58617800  0.91509389  0.37069235    -0.14610
C776        C  0.57361125  0.90934936  0.32767095    -0.29780
H777        H  0.61283089  0.91031381  0.37715327     0.14420
H778        H  0.54707643  0.91852910  0.32278097     0.14990
C779        C  0.57273345  0.89999607  0.15866934    -0.14610
C780        C  0.58553771  0.90715210  0.11617255    -0.29780
H781        H  0.54590283  0.90632855  0.16372956     0.14420
H782        H  0.61240921  0.90532740  0.11014217     0.14990
C783        C  0.58744849  0.71223065  0.02057383    -0.14610
C784        C  0.57761781  0.74488013  0.98499074    -0.29780
H785        H  0.57462792  0.71834116  0.05335876     0.14420
H786        H  0.59104239  0.74493362  0.45189886     0.14990
O787        O  0.96386970  0.04125691  0.85959644    -0.86350
C788        C  0.55055922  0.79191859  0.48827217     1.13690
O789        O  0.50111211  0.02334256  0.95044208    -1.34160
O790        O  0.96402825  0.80979071  0.94981483    -0.87840
O791        O  0.96336819  0.12712251  0.90054646    -0.88500
O792        O  0.93157867  0.05814450  0.99844915    -0.77330
O793        O  0.97020153  0.92503242  0.90315681    -0.99410
C794        C  0.94023450  0.92588545  0.57817835     1.23730
O795        O  0.00199084  0.02253280  0.54431058    -1.34310
Mn796      Mn  0.53832857  0.98900316  0.49619057     1.82050
O797        O  0.93050906  0.95096892  0.54269917    -0.76400
O798        O  0.96365693  0.80622005  0.52678046    -0.85800
C799        C  0.56309808  0.92744428  0.57862499     1.14820
C800        C  0.95223872  0.79041193  0.48748583     1.09540
O801        O  0.57204979  0.05945779  0.49794738    -0.77340
O802        O  0.50175944  0.91811965  0.49369824    -1.31030
O803        O  0.53405386  0.12645892  0.50105716    -0.96550
C804        C  0.95326765  0.08491245  0.63116023     1.08250
Mn805      Mn  0.00134848  0.86331062  0.55181902     1.48570
O806        O  0.96466810  0.12042494  0.60179740    -0.85750
Mn807      Mn  0.50097564  0.11898268  0.95028249     1.49560
O808        O  0.53860765  0.03753262  0.86002507    -0.89630
C809        C  0.94010195  0.93056501  0.90880969     1.21450
C810        C  0.55015960  0.08915928  0.86884957     1.13510
Mn811      Mn  0.96517593  0.98743356  0.99568062     1.80970
O812        O  0.53296934  0.92164060  0.58351584    -0.94780
Mn813      Mn  0.00146794  0.98563433  0.88324708     1.49260
C814        C  0.95210101  0.09277025  0.86874098     1.10030
Mn815      Mn  0.50183486  0.98148053  0.60834356     1.49930
C816        C  0.55123401  0.08769441  0.63139031     1.12930
O817        O  0.96958093  0.12508411  0.00131534    -1.00580
O818        O  0.53919182  0.80788727  0.52766038    -0.90240
C819        C  0.93972095  0.11191765  0.00056299     1.24210
O820        O  0.97032495  0.91929779  0.58288743    -1.00970
O821        O  0.53854565  0.80740124  0.95085400    -0.88370
O822        O  0.53951933  0.03575152  0.63670837    -0.87970
O823        O  0.53861072  0.12390646  0.90026984    -0.88000
Mn824      Mn  0.50103361  0.86559804  0.93047562     1.47860
O825        O  0.57300552  0.95213025  0.54300830    -0.76470
C826        C  0.56389048  0.11322884  0.49965747     1.17260
O827        O  0.93036758  0.95311571  0.94640955    -0.75200
O828        O  0.57231159  0.95045431  0.94676614    -0.74820
Mn829      Mn  0.00236061  0.11768511  0.55165870     1.51060
O830        O  0.96467836  0.03280430  0.63632245    -0.87170
O831        O  0.53236344  0.92227092  0.90403982    -0.94700
O832        O  0.54011616  0.12314811  0.60184805    -0.89710
C833        C  0.56246588  0.92782435  0.90932982     1.15050
C834        C  0.61138805  0.25714630  0.01082971     0.04960
C835        C  0.62513875  0.27467402  0.96862003    -0.11190
C836        C  0.65005494  0.31880585  0.96805859     0.02460
C837        C  0.66225663  0.34228668  0.00985386    -0.09720
C838        C  0.64910591  0.32718811  0.55131105     0.04950
C839        C  0.62303539  0.28546340  0.55138163    -0.09140
H840        H  0.61600949  0.25503610  0.93656656     0.10540
H841        H  0.68356095  0.37222920  0.00957266     0.08070
H842        H  0.61245109  0.27168460  0.58368641     0.07920
C843        C  0.89260906  0.25991571  0.00844440     0.04960
C844        C  0.87865403  0.27760994  0.96656148    -0.11190
C845        C  0.85300028  0.32030899  0.96666616     0.02460
C846        C  0.84054858  0.34260014  0.00875039    -0.09720
C847        C  0.85533300  0.32761090  0.55141022     0.04950
C848        C  0.88120205  0.28541642  0.55157027    -0.09140
H849        H  0.88800402  0.25887234  0.93426610     0.10540
H850        H  0.81886229  0.37172279  0.00896289     0.08070
H851        H  0.89149084  0.27137701  0.58392441     0.07920
C852        C  0.88645564  0.67147068  0.51785484     0.04960
C853        C  0.87183254  0.65182751  0.97547590    -0.11190
C854        C  0.84227028  0.61787958  0.97540068     0.02460
C855        C  0.82866605  0.60066832  0.51757009    -0.09720
C856        C  0.84275333  0.61944111  0.55963579     0.04950
C857        C  0.87189847  0.65442240  0.55961421    -0.09140
H858        H  0.88268028  0.66347144  0.94297398     0.10540
H859        H  0.80556708  0.57511642  0.51754115     0.08070
H860        H  0.88209370  0.67136949  0.59189930     0.07920
C861        C  0.61722567  0.67399459  0.51812198     0.04960
C862        C  0.63057091  0.64945020  0.97635360    -0.11190
C863        C  0.66017298  0.61562924  0.97590015     0.02460
C864        C  0.67548127  0.60423655  0.51768762    -0.09720
C865        C  0.66112376  0.62245608  0.55976200     0.04950
C866        C  0.63176643  0.65692148  0.55983254    -0.09140
H867        H  0.61946402  0.66068625  0.94398878     0.10540
H868        H  0.69870602  0.57901730  0.51761254     0.08070
H869        H  0.62135342  0.67339867  0.59218215     0.07920
O870        O  0.71433365  0.39079510  0.65756063    -0.86350
C871        C  0.80011141  0.41762487  0.89118779     1.13690
O872        O  0.75156042  0.48807110  0.71542216    -1.34160
O873        O  0.71291989  0.38304556  0.85908132    -0.87840
O874        O  0.71418829  0.47885173  0.62368594    -0.88500
O875        O  0.68033071  0.56082939  0.71748052    -0.77330
O876        O  0.71921699  0.38577182  0.75811773    -0.99410
C877        C  0.68964436  0.57965422  0.85136403     1.23740
O878        O  0.75133041  0.59442918  0.76735236    -1.34310
Mn879      Mn  0.78782907  0.52338116  0.76450802     1.82060
O880        O  0.67989525  0.55733772  0.81373081    -0.76400
O881        O  0.71341651  0.46872553  0.90025869    -0.85800
C882        C  0.81243881  0.58026969  0.85157583     1.14820
C883        C  0.70170278  0.41717141  0.89113394     1.09540
O884        O  0.82271199  0.56038987  0.71793847    -0.77340
O885        O  0.75112634  0.48469644  0.81004806    -1.31030
O886        O  0.78294554  0.59168217  0.67749531    -0.96550
C887        C  0.70243692  0.72037128  0.77278292     1.08250
Mn888      Mn  0.75098962  0.52463762  0.87652198     1.48570
O889        O  0.71410212  0.70486593  0.73350069    -0.85750
Mn890      Mn  0.75169751  0.53258184  0.65245513     1.49560
O891        O  0.78991992  0.39105319  0.65833359    -0.89630
C892        C  0.68935105  0.39895536  0.75817856     1.21450
C893        C  0.80106496  0.42674417  0.62892892     1.13510
Mn894      Mn  0.71482942  0.52339703  0.76413601     1.80970
O895        O  0.78230445  0.58554358  0.85706566    -0.94780
Mn896      Mn  0.75178085  0.39286223  0.70779700     1.49260
C897        C  0.70282139  0.42668244  0.62861437     1.10030
Mn898      Mn  0.75103528  0.64250934  0.83081110     1.49930
C899        C  0.80010655  0.72070712  0.77324724     1.12930
O900        O  0.72041304  0.59191618  0.67734362    -1.00580
O901        O  0.78858795  0.46931469  0.90014570    -0.90240
C902        C  0.69028272  0.58588291  0.68207509     1.24210
O903        O  0.71973622  0.58517975  0.85677962    -1.00970
O904        O  0.78858954  0.38310657  0.85965800    -0.88370
O905        O  0.78862922  0.70115222  0.81065285    -0.87970
O906        O  0.78922795  0.47853199  0.62362411    -0.88000
Mn907      Mn  0.75102010  0.38896197  0.80967863     1.47860
O908        O  0.82233387  0.55773131  0.81407172    -0.76470
C909        C  0.81302332  0.58529243  0.68236608     1.17260
O910        O  0.68119713  0.45273921  0.76052845    -0.75200
O911        O  0.82152100  0.45273181  0.76243363    -0.74820
Mn912      Mn  0.75162204  0.64730262  0.70836876     1.51060
O913        O  0.71343076  0.70055397  0.81028437    -0.87170
O914        O  0.78355274  0.38577613  0.75891172    -0.94700
O915        O  0.78902387  0.70466605  0.73382675    -0.89710
C916        C  0.81339370  0.39894500  0.76046479     1.15050
C917        C  0.64259303  0.25056263  0.75465820     0.04960
C918        C  0.62974671  0.22943242  0.71215766    -0.11190
C919        C  0.60408806  0.18667036  0.71100810     0.02460
C920        C  0.59078672  0.16741795  0.75248714    -0.09720
C921        C  0.60360379  0.18735945  0.79494047     0.04950
C922        C  0.62939822  0.22964323  0.79600223    -0.09140
H923        H  0.63978599  0.24589826  0.68034383     0.10540
H924        H  0.56918193  0.13812333  0.75175664     0.08070
H925        H  0.63912167  0.24624286  0.82868633     0.07920
C926        C  0.86670476  0.83857543  0.74269097     0.04960
C927        C  0.88126320  0.85552624  0.70084929    -0.11190
C928        C  0.91051281  0.89028698  0.70071634     0.02460
C929        C  0.92471325  0.90891656  0.74272055    -0.09720
C930        C  0.91022347  0.89419278  0.78476913     0.04950
C931        C  0.88086626  0.85971174  0.78465508    -0.09140
H932        H  0.87097219  0.83873061  0.66857719     0.10540
H933        H  0.94786820  0.93430933  0.74266694     0.08070
H934        H  0.87004696  0.84802285  0.81715229     0.07920
C935        C  0.63601009  0.83824854  0.74244565     0.04960
C936        C  0.62156806  0.85565573  0.70075255    -0.11190
C937        C  0.59218928  0.89011510  0.70089686     0.02460
C938        C  0.57769959  0.90780933  0.74303755    -0.09720
C939        C  0.59213418  0.89266903  0.78493525     0.04950
C940        C  0.62165198  0.85867460  0.78453361    -0.09140
H941        H  0.63207649  0.83947842  0.66837819     0.10540
H942        H  0.55443569  0.93291283  0.74321148     0.08070
H943        H  0.63247581  0.84681714  0.81692711     0.07920
C944        C  0.86107053  0.25157984  0.75006891     0.04960
C945        C  0.87334913  0.22674958  0.70840744    -0.11190
C946        C  0.89928490  0.18469385  0.70865463     0.02460
C947        C  0.91268542  0.16799784  0.75071124    -0.09720
C948        C  0.90004421  0.19063859  0.79257774     0.04950
C949        C  0.87470780  0.23395736  0.79220898    -0.09140
H950        H  0.86313301  0.24080715  0.67601603     0.10540
H951        H  0.93423695  0.13858316  0.75088091     0.08070
H952        H  0.86525270  0.25303385  0.82433246     0.07920
C953        C  0.67449181  0.76322835  0.77593561    -0.14610
C954        C  0.66496218  0.79633249  0.74042706    -0.29780
H955        H  0.66158179  0.76667492  0.80865347     0.14420
H956        H  0.67804531  0.79062417  0.70780507     0.14990
C957        C  0.82788226  0.76398151  0.77661018    -0.14610
C958        C  0.83787611  0.79634637  0.74084442    -0.29780
H959        H  0.84023728  0.76839225  0.80960914     0.14420
H960        H  0.82525301  0.78974995  0.70803442     0.14990
C961        C  0.66298534  0.35302412  0.75517247    -0.14610
C962        C  0.66985440  0.29468585  0.75611281    -0.29780
H963        H  0.63702881  0.36752678  0.75278184     0.14420
H964        H  0.69549219  0.27906404  0.75959244     0.14990
C965        C  0.83966001  0.35290762  0.76195616    -0.14610
C966        C  0.83393161  0.29603111  0.74915337    -0.29780
H967        H  0.86468967  0.36633415  0.77284558     0.14420
H968        H  0.80977468  0.28271879  0.73499947     0.14990
C969        C  0.68030560  0.61024105  0.60205806    -0.14610
C970        C  0.66737458  0.60265262  0.64441224    -0.29780
H971        H  0.70714065  0.60383749  0.59709240     0.14420
H972        H  0.64049119  0.60455739  0.65033374     0.14990
C973        C  0.67906714  0.59995614  0.93311817    -0.14610
C974        C  0.66653722  0.59520490  0.89000633    -0.29780
H975        H  0.70559003  0.59060549  0.93792770     0.14420
H976        H  0.63989743  0.60014896  0.88353548     0.14990
C977        C  0.82342661  0.60752193  0.60197959    -0.14610
C978        C  0.83612885  0.60123882  0.64456974    -0.29780
H979        H  0.79666105  0.60054334  0.59693416     0.14420
H980        H  0.86296063  0.60367940  0.65065608     0.14990
C981        C  0.82310170  0.60234571  0.93297695    -0.14610
C982        C  0.83555429  0.59658550  0.88986170    -0.29780
H983        H  0.79654279  0.59350925  0.93812634     0.14420
H984        H  0.86221900  0.60100941  0.88318724     0.14990
C985        C  0.82758924  0.40703060  0.59679162    -0.14610
C986        C  0.83978419  0.35111996  0.59451919    -0.29780
H987        H  0.83426429  0.43778723  0.57010513     0.14420
H988        H  0.83489715  0.32051627  0.62193292     0.14990
C989        C  0.83712150  0.34036217  0.92379720    -0.14610
C990        C  0.82697602  0.39734230  0.92140720    -0.29780
H991        H  0.83026309  0.30748619  0.89735606     0.14420
H992        H  0.83551909  0.42958349  0.94746119     0.14990
C993        C  0.66436683  0.35081645  0.59442349    -0.14610
C994        C  0.67642359  0.40678004  0.59656915    -0.29780
H995        H  0.66922124  0.32029492  0.62187840     0.14420
H996        H  0.66973453  0.43742162  0.56983761     0.14990
C997        C  0.67506081  0.39641877  0.92180762    -0.14610
C998        C  0.66554373  0.33908251  0.92480388    -0.29780
H999        H  0.66634625  0.42865431  0.94780121     0.14420
H1000       H  0.67268226  0.30615738  0.89849918     0.14990
C1001       C  0.57703732  0.10929476  0.83857161    -0.14610
C1002       C  0.58781260  0.16593884  0.83742002    -0.29780
H1003       H  0.58508091  0.07767613  0.81172095     0.14420
H1004       H  0.58149763  0.19795310  0.86478197     0.14990
C1005       C  0.58876616  0.16438499  0.66736193    -0.14610
C1006       C  0.57755341  0.10780530  0.66368836    -0.29780
H1007       H  0.58326910  0.19596088  0.64086751     0.14420
H1008       H  0.58478157  0.07639972  0.68961916     0.14990
C1009       C  0.58429621  0.21241892  0.01199731    -0.14610
C1010       C  0.59009875  0.15920720  0.49823199    -0.29780
H1011       H  0.55966077  0.22964706  0.52379123     0.14420
H1012       H  0.61433899  0.14273035  0.98522769     0.14990
C1013       C  0.91548312  0.17036369  0.83571659    -0.14610
C1014       C  0.92532418  0.11320034  0.83837014    -0.29780
H1015       H  0.92240313  0.20323084  0.86213176     0.14420
H1016       H  0.91679772  0.08100992  0.81227195     0.14990
C1017       C  0.92691478  0.10511798  0.66337932    -0.14610
C1018       C  0.91491496  0.16115597  0.66561426    -0.29780
H1019       H  0.92009055  0.07445317  0.69006101     0.14420
H1020       H  0.91991138  0.19170206  0.63819760     0.14990
C1021       C  0.91985950  0.21572739  0.00865910    -0.14610
C1022       C  0.91336129  0.15788731  0.00039016    -0.29780
H1023       H  0.94468718  0.22892183  0.52392258     0.14420
H1024       H  0.88768878  0.14376640  0.99371196     0.14990
C1025       C  0.92927737  0.90997050  0.82726056    -0.14610
C1026       C  0.91690610  0.91471706  0.87049519    -0.29780
H1027       H  0.95575606  0.91950686  0.82210370     0.14420
H1028       H  0.89029764  0.90963533  0.87728500     0.14990
C1029       C  0.91711889  0.90963761  0.61592759    -0.14610
C1030       C  0.92985695  0.90218013  0.65834977    -0.29780
H1031       H  0.89025235  0.90792035  0.60998458     0.14420
H1032       H  0.95668698  0.90841704  0.66331580     0.14990
C1033       C  0.91513184  0.71388863  0.51978868    -0.14610
C1034       C  0.92438601  0.74740065  0.48435934    -0.29780
H1035       H  0.92824177  0.71959870  0.55231779     0.14420
H1036       H  0.91143475  0.74387770  0.45173647     0.14990
C1037       C  0.58552582  0.91228269  0.87070956    -0.14610
C1038       C  0.57302285  0.90762950  0.82761369    -0.29780
H1039       H  0.61218693  0.90764166  0.87715623     0.14420
H1040       H  0.54647810  0.91674014  0.82274173     0.14990
C1041       C  0.57309543  0.90282753  0.65860521    -0.14610
C1042       C  0.58603473  0.91056669  0.61625672    -0.29780
H1043       H  0.54627197  0.90936881  0.66358023     0.14420
H1044       H  0.61290818  0.90847067  0.61028796     0.14990
C1045       C  0.58826390  0.71595948  0.52029758    -0.14610
C1046       C  0.57844009  0.74883052  0.48482802    -0.29780
H1047       H  0.57544142  0.72199519  0.55308669     0.14420
H1048       H  0.59026667  0.74100394  0.95209663     0.14990
loop_ 
_geom_bond_atom_site_label_1 
_geom_bond_atom_site_label_2 
_geom_bond_distance 
_geom_bond_site_symmetry_2 
_ccdc_geom_bond_type 
O1           C28   1.268       .  A
O1          Mn27   2.079   1_545  S
C2           O32   1.272   1_556  A
C2          O297   1.271       .  A
C2          C260   1.474       .  S
O3          Mn21   2.151       .  S
O3         Mn272   2.171   1_545  S
O3         Mn549   2.170   1_445  S
O3         Mn551   2.108   1_545  S
O4          C276   1.270       .  A
O4         Mn562   2.083       .  S
O5           C28   1.270       .  A
O5         Mn545   2.095       .  S
O6           C33   1.251       .  A
O6          Mn25   2.075   1_545  S
O7          Mn27   1.946       .  S
O7         Mn562   1.959       .  S
O7           C23   1.216       .  S
C8           O11   1.253       .  A
C8          C243   1.484       .  S
C8           O34   1.216       .  S
O9          Mn43   2.144       .  S
O9         Mn553   2.115   1_545  S
O9         Mn534   2.167   1_544  S
O9         Mn287   2.169   1_544  S
Mn10         O39   2.128   1_556  S
Mn10         O15   2.077   1_565  S
Mn10        O304   2.124       .  S
Mn10         O16   2.158       .  S
Mn10        O265   2.172   1_565  S
Mn10        O533   2.168   1_566  S
O11        Mn287   2.124   1_554  S
O12          C14   1.274   1_554  A
O12         Mn19   2.098       .  S
C13          O39   1.254       .  A
C13         C256   1.487       .  S
C13          O26   1.216       .  S
C14         O266   1.269       .  A
C14         C248   1.473       .  S
O15          C40   1.251       .  A
O16        Mn543   2.117   1_556  S
O16        Mn300   2.113       .  S
O16        Mn811   2.158   1_455  S
O17        Mn283   1.962   1_554  S
O17        Mn567   1.966       .  S
O17          C40   1.226   1_554  S
C18          O44   1.269       .  A
C18          O20   1.270       .  A
C18         C231   1.469       .  S
Mn19        O556   2.094       .  S
Mn19        O540   2.116   1_554  S
Mn19         O34   1.963       .  S
Mn19        O550   1.964       .  S
O20         Mn43   2.091       .  S
Mn21         O37   2.095       .  S
Mn21        O529   2.094   1_455  S
Mn21        O279   1.962       .  S
Mn21        O555   1.963   1_455  S
O22          C24   1.269       .  A
O22        Mn551   2.080   1_545  S
C23          O41   1.253       .  A
C23         C240   1.487       .  S
C24          O37   1.270       .  A
C24         C215   1.468       .  S
Mn25         O41   2.126       .  S
Mn25        O273   2.125       .  S
Mn25        O527   2.169   1_565  S
Mn25        O271   2.171   1_565  S
Mn25        O802   2.158       .  S
O26         Mn29   1.947       .  S
O26        Mn543   1.962       .  S
Mn27        O546   2.081   1_565  S
Mn27        O527   2.108   1_565  S
Mn27        O569   1.945       .  S
C28         C228   1.468       .  S
Mn29         O36   2.084   1_565  S
Mn29        O568   2.085   1_465  S
Mn29        O533   2.115   1_565  S
Mn29        O558   1.948   1_455  S
C30          O36   1.269       .  A
C30          O46   1.270       .  A
C30         C220   1.469       .  S
O31        Mn545   1.965       .  S
O31        Mn305   1.966       .  S
O31          C33   1.226       .  S
O32        Mn543   2.092       .  S
C33         C236   1.472       .  S
O34        Mn553   1.948       .  S
O35         C264   1.270       .  A
O35         Mn38   2.086       .  S
Mn38        O528   2.086   1_455  S
Mn38        O278   2.114       .  S
Mn38         O45   1.959       .  S
Mn38        O531   1.958   1_455  S
C40         C224   1.472       .  S
O42          C47   1.253       .  A
O42        Mn272   2.124       .  S
Mn43        O570   2.092       .  S
Mn43        O541   1.967       .  S
Mn43        O293   1.967       .  S
O44        Mn553   2.084   1_545  S
O45        Mn551   1.945       .  S
O45          C47   1.215       .  S
O46        Mn567   2.092       .  S
C47         C251   1.484       .  S
C48         C223   1.474       .  S
C48          C49   1.413       .  A
C48         C315   1.405       .  A
C49          C50   1.404       .  A
C49          H54   1.083       .  S
C50         C212   1.488       .  S
C50          C51   1.399       .  A
C51         C314   1.399       .  A
C51          H55   1.083       .  S
C52         C207   1.481       .  S
C52          C53   1.399       .  A
C52         C313   1.399       .  A
C53         C310   1.406       .  A
C53          H56   1.084       .  S
C57         C235   1.470       .  S
C57          C58   1.409       .  A
C57         C324   1.408       .  A
C58          C59   1.400       .  A
C58          H63   1.084       .  S
C59         C203   1.480       .  S
C59          C60   1.399       .  A
C60         C323   1.398       .  A
C60          H64   1.083       .  S
C61         C200   1.483       .  S
C61          C62   1.401       .  A
C61         C322   1.399       .  A
C62         C319   1.407       .  A
C62          H65   1.084       .  S
C66         C247   1.488       .  S
C66          C71   1.408       .  A
C66         C329   1.416   1_554  A
C67          C68   1.403       .  A
C67         C328   1.417       .  A
C67          H72   1.079       .  S
C68         C195   1.486       .  S
C68         C331   1.401       .  A
C69          C70   1.402       .  A
C69         C330   1.403   1_554  A
C69          H73   1.085       .  S
C70         C191   1.484       .  S
C70          C71   1.402       .  A
C71          H74   1.083       .  S
C75         C259   1.490       .  S
C75          C80   1.411       .  A
C75         C338   1.415   1_554  A
C76          C77   1.403       .  A
C76         C337   1.416       .  A
C76          H81   1.079       .  S
C77         C187   1.487       .  S
C77         C340   1.401       .  A
C78          C79   1.402       .  A
C78         C339   1.401   1_554  A
C78          H82   1.085       .  S
C79         C183   1.485       .  S
C79          C80   1.403       .  A
C80          H83   1.083       .  S
O84         C111   1.271       .  A
O84        Mn110   2.093       .  S
C85         O118   1.270       .  A
C85         O115   1.269       .  A
C85         C204   1.466       .  S
O86         Mn93   2.171       .  S
O86        Mn104   2.116       .  S
O86        Mn108   2.169       .  S
O86        Mn110   2.142       .  S
O87          C97   1.271       .  A
O87        Mn121   2.100       .  S
O88         C111   1.269       .  A
O88        Mn104   2.083       .  S
O89         C116   1.255       .  A
O89        Mn108   2.131       .  S
O90        Mn121   1.965       .  S
O90        Mn110   1.969       .  S
O90         C106   1.225       .  S
C91          O94   1.253       .  A
C91         C188   1.485       .  S
C91         O117   1.216       .  S
O92        Mn112   2.113       .  S
O92         Mn93   2.158       .  S
O92        Mn126   2.117       .  S
O92        Mn108   2.158       .  S
Mn93        O122   2.127       .  S
Mn93         O98   2.123       .  S
Mn93        O125   2.077       .  S
Mn93         O99   2.170       .  S
O94        Mn108   2.124       .  S
O95          C97   1.270       .  A
O95        Mn102   2.084       .  S
C96         O122   1.253       .  A
C96         C196   1.485       .  S
C96         O109   1.216       .  S
C97         C211   1.472       .  S
O98         C123   1.253       .  A
O99        Mn102   2.108       .  S
O99        Mn121   2.151       .  S
O99        Mn108   2.173       .  S
O100       Mn104   1.948       .  S
O100       Mn126   1.966       .  S
O100        C123   1.216       .  S
C101        O127   1.271       .  A
C101        O103   1.273       .  A
C101        C167   1.473       .  S
Mn102       O115   2.080       .  S
Mn102       O117   1.949       .  S
Mn102       O109   1.944       .  S
O103       Mn126   2.093       .  S
Mn104       O120   2.086       .  S
Mn104       O114   1.947       .  S
O105        C107   1.270       .  A
O105       Mn110   2.094       .  S
C106        O124   1.251       .  A
C106        C175   1.472       .  S
C107        O120   1.269       .  A
C107        C199   1.471       .  S
Mn108       O124   2.078       .  S
O109       Mn112   1.955       .  S
Mn110       O128   1.964       .  S
C111        C208   1.469       .  S
Mn112       O119   2.084       .  S
Mn112       O127   2.087       .  S
Mn112       O117   1.962       .  S
C113        O119   1.270       .  A
C113        O129   1.274       .  A
C113        C171   1.474       .  S
O114       Mn126   1.962       .  S
O114        C116   1.216       .  S
C116        C184   1.488       .  S
O118       Mn121   2.092       .  S
Mn121       O128   1.962       .  S
C123        C192   1.484       .  S
O125        C130   1.250       .  A
Mn126       O129   2.097       .  S
O128        C130   1.225       .  S
C130        C179   1.471       .  S
C131        C176   1.472       .  S
C131        C132   1.406       .  A
C131        C136   1.410       .  A
C132        C133   1.400       .  A
C132        H137   1.084       .  S
C133        C219   1.481       .  S
C133        C134   1.399       .  A
C134        C135   1.400       .  A
C134        H138   1.083       .  S
C135        C216   1.483       .  S
C135        C136   1.402       .  A
C136        H139   1.084       .  S
C140        C172   1.489       .  S
C140        C141   1.409       .  A
C140        C145   1.417       .  A
C141        C142   1.401       .  A
C141        H146   1.083       .  S
C142        C244   1.483       .  S
C142        C143   1.401       .  A
C143        C144   1.401       .  A
C143        H147   1.085       .  S
C144        C239   1.487       .  S
C144        C145   1.404       .  A
C145        H148   1.079       .  S
C149        C168   1.489       .  S
C149        C150   1.411       .  A
C149        C154   1.415       .  A
C150        C151   1.403       .  A
C150        H155   1.083       .  S
C151        C255   1.484       .  S
C151        C152   1.402       .  A
C152        C153   1.401       .  A
C152        H156   1.085       .  S
C153        C252   1.486       .  S
C153        C154   1.402       .  A
C154        H157   1.079       .  S
C158        C180   1.470       .  S
C158        C159   1.406       .  A
C158        C163   1.409       .  A
C159        C160   1.400       .  A
C159        H164   1.084       .  S
C160        C232   1.481       .  S
C160        C161   1.398       .  A
C161        C162   1.399       .  A
C161        H165   1.083       .  S
C162        C227   1.482       .  S
C162        C163   1.401       .  A
C163        H166   1.084       .  S
C167        C168   1.347       .  D
C167        H169   1.083       .  S
C168        H170   1.087       .  S
C171        C172   1.345       .  D
C171        H173   1.083       .  S
C172        H174   1.087       .  S
C175        C176   1.340       .  D
C175        H177   1.087       .  S
C176        H178   1.086       .  S
C179        C180   1.339       .  D
C179        H181   1.087       .  S
C180        H182   1.086       .  S
C183        C184   1.352       .  D
C183        H185   1.087       .  S
C184        H186   1.085       .  S
C187        C188   1.352       .  D
C187        H189   1.087       .  S
C188        H190   1.084       .  S
C191        C192   1.351       .  D
C191        H193   1.087       .  S
C192        H194   1.085       .  S
C195        C196   1.352       .  D
C195        H197   1.087       .  S
C196        H198   1.085       .  S
C199        C200   1.347       .  D
C199        H201   1.088       .  S
C200        H202   1.086       .  S
C203        C204   1.345       .  D
C203        H205   1.086       .  S
C204        H206   1.088       .  S
C207        C208   1.345       .  D
C207        H209   1.086       .  S
C208        H210   1.088       .  S
C211        C212   1.350       .  D
C211        H213   1.088       .  S
C212        H214   1.086       .  S
C215        C216   1.347       .  D
C215        H217   1.088       .  S
C216        H218   1.086       .  S
C219        C220   1.346       .  D
C219        H221   1.086       .  S
C220        H222   1.088       .  S
C223        C486   1.340       .  D
C223        H487   1.086       .  S
C224        C485   1.339   1_556  D
C224        H488   1.087       .  S
H225        C485   1.086       .  S
H226        C486   1.087       .  S
C227        C228   1.346       .  D
C227        H229   1.086       .  S
C228        H230   1.088       .  S
C231        C232   1.346       .  D
C231        H233   1.088       .  S
C232        H234   1.087       .  S
C235        C236   1.340       .  D
C235        H499   1.086       .  S
C236        H238   1.087       .  S
H237        C497   1.086       .  S
C239        C240   1.352       .  D
C239        H241   1.087       .  S
C240        H242   1.085       .  S
C243        C244   1.351       .  D
C243        H245   1.085       .  S
C244        H246   1.087       .  S
C247        C248   1.345   1_554  D
C247        H249   1.087       .  S
C248        H250   1.083       .  S
C251        C252   1.352       .  D
C251        H253   1.084       .  S
C252        H254   1.087       .  S
C255        C256   1.352       .  D
C255        H257   1.087       .  S
C256        H258   1.085       .  S
C259        C260   1.348   1_554  D
C259        H261   1.087       .  S
C260        H524   1.082       .  S
H262        C522   1.083       .  S
O263        C290   1.267       .  A
O263       Mn289   2.074   1_545  S
C264        O294   1.273       .  A
C264        C522   1.473       .  S
O265       Mn283   2.151       .  S
O265       Mn811   2.169   1_445  S
O265       Mn813   2.108   1_545  S
O266       Mn824   2.082       .  S
O267        C290   1.270       .  A
O267       Mn807   2.094       .  S
O268        C295   1.251   1_556  A
O268       Mn287   2.077   1_545  S
O269       Mn824   1.957       .  S
O269       Mn289   1.942       .  S
O269        C285   1.216       .  S
C270        O273   1.253       .  A
C270        C505   1.485       .  S
C270        O296   1.216       .  S
O271       Mn815   2.112   1_545  S
O271       Mn796   2.171   1_545  S
O271       Mn305   2.146       .  S
Mn272       O301   2.128       .  S
Mn272       O277   2.081   1_565  S
Mn272       O795   2.169   1_565  S
Mn272       O278   2.160       .  S
O274        C276   1.274       .  A
O274       Mn281   2.098       .  S
C275        O301   1.254       .  A
C275        C518   1.487       .  S
C275        O288   1.216       .  S
C276        C510   1.473       .  S
O277        C302   1.251       .  A
O278       Mn805   2.116       .  S
O278       Mn549   2.158   1_455  S
O279       Mn829   1.966       .  S
O279        C302   1.225       .  S
C280        O306   1.271       .  A
C280        O282   1.270       .  A
C280        C493   1.473       .  S
Mn281       O818   2.097       .  S
Mn281       O802   2.117       .  S
Mn281       O296   1.965       .  S
Mn281       O812   1.964       .  S
O282       Mn305   2.094       .  S
Mn283       O791   2.095   1_455  S
Mn283       O299   2.093       .  S
Mn283       O817   1.964   1_456  S
O284        C286   1.269       .  A
O284       Mn813   2.080   1_545  S
C285        O303   1.253       .  A
C285        C502   1.484       .  S
C286        O299   1.270       .  A
C286        C477   1.468       .  S
Mn287       O303   2.125       .  S
Mn287       O789   2.168   1_565  S
Mn287       O540   2.159       .  S
O288       Mn805   1.962       .  S
O288       Mn291   1.947       .  S
Mn289       O808   2.075   1_565  S
Mn289       O789   2.110   1_565  S
Mn289       O831   1.942       .  S
C290        C490   1.466       .  S
Mn291       O298   2.084   1_565  S
Mn291       O830   2.084   1_465  S
Mn291       O795   2.116   1_565  S
Mn291       O820   1.948   1_455  S
C292        O298   1.269       .  A
C292        O308   1.270       .  A
C292        C482   1.469       .  S
O293       Mn807   1.964   1_554  S
O293        C295   1.226       .  S
O294       Mn805   2.092       .  S
C295        C498   1.474       .  S
O296       Mn815   1.951       .  S
O297       Mn300   2.090       .  S
Mn300       O790   2.085   1_455  S
Mn300       O793   1.960   1_455  S
Mn300       O307   1.957       .  S
C302        C486   1.473       .  S
O304        C309   1.252       .  A
Mn305       O832   2.093       .  S
Mn305       O803   1.965       .  S
O306       Mn815   2.092   1_545  S
O307       Mn813   1.945       .  S
O307        C309   1.215       .  S
O308       Mn829   2.090       .  S
C309        C513   1.484       .  S
C310        C485   1.472       .  S
C310        C311   1.410   1_554  A
C311        C312   1.402       .  A
C311        H316   1.084       .  S
C312        C474   1.484       .  S
C312        C313   1.400   1_556  A
C313        H317   1.083       .  S
C314        C469   1.478       .  S
C314        C315   1.398       .  A
C315        H318   1.084       .  S
C319        C497   1.472       .  S
C319        C320   1.409   1_554  A
C320        C321   1.402       .  A
C320        H325   1.084       .  S
C321        C465   1.483       .  S
C321        C322   1.401   1_556  A
C322        H326   1.083       .  S
C323        C462   1.483       .  S
C323        C324   1.402       .  A
C324        H327   1.084       .  S
C328        C509   1.489       .  S
C328        C333   1.410       .  A
C329        C330   1.403       .  A
C329        H334   1.079       .  S
C330        C457   1.488       .  S
C331        C332   1.400       .  A
C331        H335   1.085       .  S
C332        C453   1.482       .  S
C332        C333   1.402       .  A
C333        H336   1.083       .  S
C337        C521   1.488       .  S
C337        C342   1.410       .  A
C338        C339   1.403       .  A
C338        H343   1.078       .  S
C339        C449   1.487       .  S
C340        C341   1.402       .  A
C340        H344   1.085       .  S
C341        C445   1.483       .  S
C341        C342   1.401       .  A
C342        H345   1.083       .  S
O346        C373   1.270       .  A
O346       Mn372   2.086       .  S
C347        O380   1.271       .  A
C347        O377   1.269       .  A
C347        C466   1.469       .  S
O348       Mn355   2.168       .  S
O348       Mn366   2.115       .  S
O348       Mn370   2.166       .  S
O348       Mn372   2.142       .  S
O349        C359   1.270       .  A
O349       Mn383   2.098       .  S
O350        C373   1.268       .  A
O350       Mn366   2.082       .  S
O351        C378   1.254       .  A
O351       Mn370   2.129       .  S
O352       Mn383   1.959       .  S
O352       Mn372   1.961       .  S
O352        C368   1.225       .  S
C353        O356   1.252       .  A
C353        C450   1.484       .  S
C353        O379   1.216       .  S
O354       Mn374   2.111       .  S
O354       Mn355   2.158       .  S
O354       Mn388   2.118       .  S
O354       Mn370   2.160       .  S
Mn355       O384   2.130       .  S
Mn355       O360   2.122       .  S
Mn355       O387   2.078       .  S
Mn355       O361   2.169       .  S
O356       Mn370   2.121       .  S
O357        C359   1.268       .  A
O357       Mn364   2.078       .  S
C358        O384   1.254       .  A
C358        C458   1.487       .  S
C358        O371   1.216       .  S
C359        C473   1.469       .  S
O360        C385   1.252       .  A
O361       Mn364   2.108       .  S
O361       Mn383   2.149       .  S
O361       Mn370   2.173       .  S
O362       Mn366   1.950       .  S
O362       Mn388   1.964       .  S
O362        C385   1.216       .  S
C363        O389   1.271       .  A
C363        O365   1.271       .  A
C363        C429   1.474       .  S
Mn364       O377   2.081       .  S
Mn364       O379   1.947       .  S
Mn364       O371   1.944       .  S
O365       Mn388   2.087       .  S
Mn366       O382   2.084       .  S
Mn366       O376   1.942       .  S
O367        C369   1.270       .  A
O367       Mn372   2.091       .  S
C368        O386   1.251       .  A
C368        C437   1.472       .  S
C369        O382   1.269       .  A
C369        C461   1.469       .  S
Mn370       O386   2.082       .  S
O371       Mn374   1.960       .  S
Mn372       O390   1.966       .  S
C373        C470   1.466       .  S
Mn374       O381   2.086       .  S
Mn374       O389   2.091       .  S
Mn374       O379   1.960       .  S
C375        O381   1.270       .  A
C375        O391   1.273       .  A
C375        C433   1.472       .  S
O376       Mn388   1.958       .  S
O376        C378   1.216       .  S
C378        C446   1.486       .  S
O380       Mn383   2.096       .  S
Mn383       O390   1.971       .  S
C385        C454   1.484       .  S
O387        C392   1.251       .  A
Mn388       O391   2.092       .  S
O390        C392   1.226       .  S
C392        C441   1.474       .  S
C393        C438   1.472       .  S
C393        C394   1.406       .  A
C393        C398   1.410       .  A
C394        C395   1.399       .  A
C394        H399   1.084       .  S
C395        C481   1.481       .  S
C395        C396   1.398       .  A
C396        C397   1.400       .  A
C396        H400   1.083       .  S
C397        C478   1.483       .  S
C397        C398   1.402       .  A
C398        H401   1.084       .  S
C402        C434   1.488       .  S
C402        C403   1.410       .  A
C402        C407   1.415       .  A
C403        C404   1.403       .  A
C403        H408   1.083       .  S
C404        C506   1.483       .  S
C404        C405   1.401       .  A
C405        C406   1.401       .  A
C405        H409   1.085       .  S
C406        C501   1.486       .  S
C406        C407   1.402       .  A
C407        H410   1.079       .  S
C411        C430   1.489       .  S
C411        C412   1.411       .  A
C411        C416   1.415       .  A
C412        C413   1.403       .  A
C412        H417   1.083       .  S
C413        C517   1.485       .  S
C413        C414   1.401       .  A
C414        C415   1.401       .  A
C414        H418   1.085       .  S
C415        C514   1.486       .  S
C415        C416   1.402       .  A
C416        H419   1.078       .  S
C420        C442   1.473       .  S
C420        C421   1.412       .  A
C420        C425   1.406       .  A
C421        C422   1.405       .  A
C421        H426   1.084       .  S
C422        C494   1.486       .  S
C422        C423   1.398       .  A
C423        C424   1.399       .  A
C423        H427   1.083       .  S
C424        C489   1.479       .  S
C424        C425   1.398       .  A
C425        H428   1.084       .  S
C429        C430   1.349       .  D
C429        H431   1.082       .  S
C430        H432   1.087       .  S
C433        C434   1.346       .  D
C433        H435   1.083       .  S
C434        H436   1.087       .  S
C437        C438   1.340       .  D
C437        H439   1.087       .  S
C438        H440   1.086       .  S
C441        C442   1.340       .  D
C441        H443   1.087       .  S
C442        H444   1.086       .  S
C445        C446   1.352       .  D
C445        H447   1.087       .  S
C446        H448   1.085       .  S
C449        C450   1.352       .  D
C449        H451   1.087       .  S
C450        H452   1.084       .  S
C453        C454   1.350       .  D
C453        H455   1.087       .  S
C454        H456   1.085       .  S
C457        C458   1.353       .  D
C457        H459   1.087       .  S
C458        H460   1.084       .  S
C461        C462   1.348       .  D
C461        H463   1.088       .  S
C462        H464   1.087       .  S
C465        C466   1.346       .  D
C465        H467   1.086       .  S
C466        H468   1.088       .  S
C469        C470   1.344       .  D
C469        H471   1.086       .  S
C470        H472   1.088       .  S
C473        C474   1.347       .  D
C473        H475   1.088       .  S
C474        H476   1.086       .  S
C477        C478   1.347       .  D
C477        H479   1.088       .  S
C478        H480   1.086       .  S
C481        C482   1.346       .  D
C481        H483   1.086       .  S
C482        H484   1.088       .  S
C489        C490   1.343       .  D
C489        H491   1.086       .  S
C490        H492   1.088       .  S
C493        C494   1.350       .  D
C493        H495   1.088       .  S
C494        H496   1.086       .  S
C497        C498   1.340       .  D
C498        H500   1.087   1_554  S
C501        C502   1.352       .  D
C501        H503   1.087       .  S
C502        H504   1.085       .  S
C505        C506   1.351       .  D
C505        H507   1.085       .  S
C506        H508   1.087       .  S
C509        C510   1.346       .  D
C509        H511   1.087       .  S
C510        H512   1.083       .  S
C513        C514   1.352       .  D
C513        H515   1.084       .  S
C514        H516   1.087       .  S
C517        C518   1.352       .  D
C517        H519   1.087       .  S
C518        H520   1.085       .  S
C521        C522   1.346       .  D
C521        H523   1.087       .  S
O525        C552   1.268       .  A
O525       Mn551   2.078   1_645  S
C526        O821   1.270       .  A
C526        O556   1.273   1_556  A
C526        C784   1.473       .  S
O527       Mn796   2.171   1_545  S
O527       Mn545   2.150       .  S
O528        C800   1.270       .  A
O529        C552   1.270       .  A
O530        C557   1.251       .  A
O530       Mn549   2.078   1_545  S
O531       Mn551   1.945   1_655  S
O531        C547   1.216       .  S
C532        O535   1.253       .  A
C532        C767   1.485       .  S
C532        O558   1.216       .  S
O533       Mn567   2.143       .  S
O533       Mn811   2.169   1_444  S
Mn534       O563   2.126   1_556  S
Mn534       O539   2.081   1_565  S
Mn534       O828   2.124       .  S
Mn534       O789   2.169   1_565  S
Mn534       O540   2.160       .  S
O535       Mn811   2.125   1_554  S
O536        C538   1.273   1_554  A
O536       Mn543   2.095   1_655  S
C537        O563   1.254       .  A
C537        C780   1.486       .  S
C537        O550   1.216       .  S
C538        O790   1.270       .  A
C538        C772   1.473       .  S
O539        C564   1.252       .  A
O540       Mn824   2.113       .  S
O541       Mn807   1.965   1_554  S
O541        C564   1.226   1_554  S
C542        O568   1.269       .  A
C542        O544   1.270       .  A
C542        C755   1.469       .  S
Mn543       O558   1.963   1_455  S
O544       Mn567   2.091   1_655  S
Mn545       O561   2.096       .  S
Mn545       O803   1.962       .  S
O546        C548   1.269       .  A
C547        O565   1.253       .  A
C547        C764   1.485       .  S
C548        O561   1.270       .  A
C548        C739   1.469       .  S
Mn549       O797   2.127       .  S
Mn549       O565   2.126       .  S
Mn549       O795   2.169   1_665  S
O550       Mn553   1.948       .  S
C552        C752   1.467       .  S
Mn553       O560   2.086   1_565  S
C554        O560   1.270       .  A
C554        O570   1.270       .  A
C554        C744   1.470       .  S
O555       Mn829   1.967   1_655  S
O555        C557   1.226       .  S
C557        C760   1.473       .  S
O559        C788   1.270       .  A
O559       Mn562   2.086       .  S
Mn562       O802   2.114       .  S
Mn562       O569   1.957       .  S
C564        C748   1.475       .  S
O566        C571   1.253       .  A
O566       Mn796   2.127       .  S
Mn567       O817   1.967   1_455  S
O569        C571   1.215       .  S
C571        C775   1.486       .  S
C572        C747   1.470       .  S
C572        C573   1.409       .  A
C572        C839   1.406       .  A
C573        C574   1.401       .  A
C573        H578   1.084       .  S
C574        C736   1.482       .  S
C574        C575   1.399       .  A
C575        C838   1.398       .  A
C575        H579   1.083       .  S
C576        C731   1.483       .  S
C576        C837   1.399       .  A
C576        C577   1.401       .  A
C577        C834   1.408       .  A
C577        H580   1.084       .  S
C581        C759   1.472       .  S
C581        C582   1.410       .  A
C581        C848   1.407       .  A
C582        C583   1.402       .  A
C582        H587   1.084       .  S
C583        C727   1.484       .  S
C583        C584   1.400       .  A
C584        C847   1.399       .  A
C584        H588   1.083       .  S
C585        C724   1.482       .  S
C585        C846   1.398       .  A
C585        C586   1.400       .  A
C586        C843   1.407       .  A
C586        H589   1.084       .  S
C590        C771   1.488       .  S
C590        C853   1.416   1_554  A
C590        C595   1.409       .  A
C591        C852   1.415       .  A
C591        C592   1.403       .  A
C591        H596   1.079       .  S
C592        C719   1.487       .  S
C592        C855   1.402       .  A
C593        C854   1.401   1_554  A
C593        C594   1.401       .  A
C593        H597   1.085       .  S
C594        C715   1.482       .  S
C594        C595   1.402       .  A
C595        H598   1.083       .  S
C599        C783   1.488       .  S
C599        C862   1.416   1_554  A
C599        C604   1.410       .  A
C600        C861   1.417       .  A
C600        C601   1.403       .  A
C600        H605   1.079       .  S
C601        C711   1.487       .  S
C601        C864   1.401       .  A
C602        C863   1.402   1_554  A
C602        C603   1.402       .  A
C602        H606   1.085       .  S
C603        C707   1.484       .  S
C603        C604   1.402       .  A
C604        H607   1.083       .  S
O608        C635   1.270       .  A
O608       Mn634   2.093       .  S
C609        O642   1.270       .  A
C609        O639   1.269       .  A
C609        C728   1.469       .  S
O610       Mn617   2.170       .  S
O610       Mn628   2.115       .  S
O610       Mn632   2.169       .  S
O610       Mn634   2.143       .  S
O611        C621   1.270       .  A
O611       Mn645   2.094       .  S
O612        C635   1.270       .  A
O612       Mn628   2.087       .  S
O613        C640   1.254       .  A
O613       Mn632   2.127       .  S
O614       Mn645   1.964       .  S
O614       Mn634   1.967       .  S
O614        C630   1.226       .  S
C615        O618   1.253       .  A
C615        C712   1.486       .  S
C615        O641   1.216       .  S
O616       Mn636   2.113       .  S
O616       Mn617   2.158       .  S
O616       Mn650   2.116       .  S
O616       Mn632   2.159       .  S
Mn617       O646   2.126       .  S
Mn617       O622   2.125       .  S
Mn617       O649   2.076       .  S
Mn617       O623   2.169       .  S
O618       Mn632   2.125       .  S
O619        C621   1.268       .  A
O619       Mn626   2.078       .  S
C620        O646   1.253       .  A
C620        C720   1.485       .  S
C620        O633   1.215       .  S
C621        C735   1.467       .  S
O622        C647   1.253       .  A
O623       Mn626   2.108       .  S
O623       Mn645   2.151       .  S
O623       Mn632   2.170       .  S
O624       Mn628   1.948       .  S
O624       Mn650   1.962       .  S
O624        C647   1.216       .  S
C625        O651   1.270       .  A
C625        O627   1.273       .  A
C625        C691   1.474       .  S
Mn626       O639   2.081       .  S
Mn626       O641   1.946       .  S
Mn626       O633   1.944       .  S
O627       Mn650   2.093       .  S
Mn628       O644   2.085       .  S
Mn628       O638   1.948       .  S
O629        C631   1.270       .  A
O629       Mn634   2.091       .  S
C630        O648   1.251       .  A
C630        C699   1.473       .  S
C631        O644   1.269       .  A
C631        C723   1.470       .  S
Mn632       O648   2.079       .  S
O633       Mn636   1.959       .  S
Mn634       O652   1.966       .  S
C635        C732   1.471       .  S
Mn636       O643   2.085       .  S
Mn636       O651   2.087       .  S
Mn636       O641   1.958       .  S
C637        O643   1.270       .  A
C637        O653   1.273       .  A
C637        C695   1.473       .  S
O638       Mn650   1.964       .  S
O638        C640   1.216       .  S
C640        C708   1.486       .  S
O642       Mn645   2.096       .  S
Mn645       O652   1.963       .  S
C647        C716   1.484       .  S
O649        C654   1.251       .  A
Mn650       O653   2.096       .  S
O652        C654   1.226       .  S
C654        C703   1.472       .  S
C655        C700   1.474       .  S
C655        C656   1.407       .  A
C655        C660   1.411       .  A
C656        C657   1.400       .  A
C656        H661   1.084       .  S
C657        C743   1.482       .  S
C657        C658   1.398       .  A
C658        C659   1.399       .  A
C658        H662   1.083       .  S
C659        C740   1.484       .  S
C659        C660   1.403       .  A
C660        H663   1.084       .  S
C664        C696   1.489       .  S
C664        C665   1.410       .  A
C664        C669   1.416       .  A
C665        C666   1.402       .  A
C665        H670   1.083       .  S
C666        C768   1.483       .  S
C666        C667   1.401       .  A
C667        C668   1.401       .  A
C667        H671   1.085       .  S
C668        C763   1.487       .  S
C668        C669   1.403       .  A
C669        H672   1.079       .  S
C673        C692   1.489       .  S
C673        C674   1.410       .  A
C673        C678   1.416       .  A
C674        C675   1.402       .  A
C674        H679   1.083       .  S
C675        C779   1.484       .  S
C675        C676   1.401       .  A
C676        C677   1.401       .  A
C676        H680   1.085       .  S
C677        C776   1.487       .  S
C677        C678   1.403       .  A
C678        H681   1.079       .  S
C682        C704   1.470       .  S
C682        C683   1.407       .  A
C682        C687   1.409       .  A
C683        C684   1.400       .  A
C683        H688   1.084       .  S
C684        C756   1.481       .  S
C684        C685   1.398       .  A
C685        C686   1.399       .  A
C685        H689   1.083       .  S
C686        C751   1.482       .  S
C686        C687   1.401       .  A
C687        H690   1.084       .  S
C691        C692   1.347       .  D
C691        H693   1.082       .  S
C692        H694   1.087       .  S
C695        C696   1.346       .  D
C695        H697   1.083       .  S
C696        H698   1.087       .  S
C699        C700   1.340       .  D
C699        H701   1.087       .  S
C700        H702   1.086       .  S
C703        C704   1.339       .  D
C703        H705   1.087       .  S
C704        H706   1.086       .  S
C707        C708   1.352       .  D
C707        H709   1.087       .  S
C708        H710   1.085       .  S
C711        C712   1.352       .  D
C711        H713   1.087       .  S
C712        H714   1.085       .  S
C715        C716   1.351       .  D
C715        H717   1.087       .  S
C716        H718   1.085       .  S
C719        C720   1.353       .  D
C719        H721   1.087       .  S
C720        H722   1.084       .  S
C723        C724   1.347       .  D
C723        H725   1.088       .  S
C724        H726   1.086       .  S
C727        C728   1.347       .  D
C727        H729   1.086       .  S
C728        H730   1.088       .  S
C731        C732   1.347       .  D
C731        H733   1.086       .  S
C732        H734   1.088       .  S
C735        C736   1.346       .  D
C735        H737   1.088       .  S
C736        H738   1.086       .  S
C739        C740   1.347       .  D
C739        H741   1.088       .  S
C740        H742   1.086       .  S
C743        C744   1.347       .  D
C743        H745   1.086       .  S
C744        H746   1.088       .  S
C747       C1010   1.339       .  D
C747       H1011   1.086       .  S
C748       C1009   1.341   1_556  D
C748       H1012   1.087       .  S
H749       C1009   1.086       .  S
H750       C1010   1.087       .  S
C751        C752   1.346       .  D
C751        H753   1.086       .  S
C752        H754   1.088       .  S
C755        C756   1.347       .  D
C755        H757   1.088       .  S
C756        H758   1.086       .  S
C759        C760   1.340       .  D
C759       H1023   1.086       .  S
C760        H762   1.087       .  S
H761       C1021   1.086       .  S
C763        C764   1.352       .  D
C763        H765   1.087       .  S
C764        H766   1.085       .  S
C767        C768   1.351       .  D
C767        H769   1.085       .  S
C768        H770   1.087       .  S
C771        C772   1.346   1_554  D
C771        H773   1.087       .  S
C772        H774   1.083       .  S
C775        C776   1.353       .  D
C775        H777   1.084       .  S
C776        H778   1.087       .  S
C779        C780   1.352       .  D
C779        H781   1.087       .  S
C780        H782   1.085       .  S
C783        C784   1.346   1_554  D
C783        H785   1.087       .  S
C784       H1048   1.083       .  S
H786       C1046   1.083       .  S
O787        C814   1.269       .  A
O787       Mn813   2.082   1_645  S
C788        O818   1.274       .  A
C788       C1046   1.474       .  S
O789       Mn807   2.149       .  S
O791        C814   1.270       .  A
O792        C819   1.251   1_556  A
O792       Mn811   2.077   1_545  S
O793       Mn813   1.946   1_655  S
O793        C809   1.216       .  S
C794        O797   1.254       .  A
C794       C1029   1.486       .  S
C794        O820   1.216       .  S
O795       Mn829   2.142       .  S
Mn796       O825   2.128       .  S
Mn796       O801   2.076   1_565  S
Mn796       O802   2.158       .  S
O798        C800   1.273       .  A
O798       Mn805   2.093   1_655  S
C799        O825   1.254       .  A
C799       C1042   1.486       .  S
C799        O812   1.216       .  S
C800       C1034   1.473       .  S
O801        C826   1.250       .  A
O803        C826   1.225       .  S
C804        O830   1.269       .  A
C804        O806   1.270       .  A
C804       C1017   1.469       .  S
Mn805       O820   1.963   1_455  S
O806       Mn829   2.092   1_655  S
Mn807       O823   2.093       .  S
O808        C810   1.267       .  A
C809        O827   1.253       .  A
C809       C1026   1.485       .  S
C810        O823   1.270       .  A
C810       C1001   1.466       .  S
Mn811       O827   2.125       .  S
O812       Mn815   1.951       .  S
C814       C1014   1.469       .  S
Mn815       O822   2.090   1_565  S
C816        O822   1.271       .  A
C816        O832   1.270       .  A
C816       C1006   1.472       .  S
O817        C819   1.226       .  S
C819       C1022   1.473       .  S
O821       Mn824   2.084       .  S
Mn824       O831   1.956       .  S
C826       C1010   1.470       .  S
O828        C833   1.253       .  A
O831        C833   1.215       .  S
C833       C1037   1.484       .  S
C834       C1009   1.476       .  S
C834        C835   1.411   1_554  A
C835        C836   1.403       .  A
C835        H840   1.084       .  S
C836        C998   1.485       .  S
C836        C837   1.400   1_556  A
C837        H841   1.083       .  S
C838        C993   1.480       .  S
C838        C839   1.399       .  A
C839        H842   1.084       .  S
C843       C1021   1.471       .  S
C843        C844   1.409   1_554  A
C844        C845   1.401       .  A
C844        H849   1.084       .  S
C845        C989   1.483       .  S
C845        C846   1.400   1_556  A
C846        H850   1.083       .  S
C847        C986   1.481       .  S
C847        C848   1.400       .  A
C848        H851   1.084       .  S
C852       C1033   1.488       .  S
C852        C857   1.410       .  A
C853        C854   1.403       .  A
C853        H858   1.079       .  S
C854        C981   1.486       .  S
C855        C856   1.402       .  A
C855        H859   1.085       .  S
C856        C977   1.484       .  S
C856        C857   1.402       .  A
C857        H860   1.083       .  S
C861       C1045   1.490       .  S
C861        C866   1.410       .  A
C862        C863   1.402       .  A
C862        H867   1.079       .  S
C863        C973   1.487       .  S
C864        C865   1.401       .  A
C864        H868   1.085       .  S
C865        C969   1.483       .  S
C865        C866   1.402       .  A
C866        H869   1.083       .  S
O870        C897   1.270       .  A
O870       Mn896   2.091       .  S
C871        O904   1.270       .  A
C871        O901   1.268       .  A
C871        C990   1.468       .  S
O872       Mn879   2.168       .  S
O872       Mn890   2.115       .  S
O872       Mn894   2.169       .  S
O872       Mn896   2.144       .  S
O873        C883   1.270       .  A
O873       Mn907   2.096       .  S
O874        C897   1.269       .  A
O874       Mn890   2.082       .  S
O875        C902   1.253       .  A
O875       Mn894   2.125       .  S
O876       Mn907   1.966       .  S
O876       Mn896   1.965       .  S
O876        C892   1.226       .  S
C877        O880   1.254       .  A
C877        C974   1.486       .  S
C877        O903   1.215       .  S
O878       Mn898   2.112       .  S
O878       Mn879   2.158       .  S
O878       Mn912   2.118       .  S
O878       Mn894   2.159       .  S
Mn879       O908   2.123       .  S
Mn879       O884   2.126       .  S
Mn879       O911   2.078       .  S
Mn879       O885   2.171       .  S
O880       Mn894   2.128       .  S
O881        C883   1.270       .  A
O881       Mn888   2.084       .  S
C882        O908   1.253       .  A
C882        C982   1.485       .  S
C882        O895   1.216       .  S
C883        C997   1.471       .  S
O884        C909   1.254       .  A
O885       Mn888   2.109       .  S
O885       Mn907   2.150       .  S
O885       Mn894   2.171       .  S
O886       Mn890   1.947       .  S
O886       Mn912   1.963       .  S
O886        C909   1.216       .  S
C887        O913   1.270       .  A
C887        O889   1.272       .  A
C887        C953   1.473       .  S
Mn888       O901   2.078       .  S
Mn888       O903   1.944       .  S
Mn888       O895   1.948       .  S
O889       Mn912   2.093       .  S
Mn890       O906   2.085       .  S
Mn890       O900   1.947       .  S
O891        C893   1.270       .  A
O891       Mn896   2.091       .  S
C892        O910   1.251       .  A
C892        C961   1.473       .  S
C893        O906   1.269       .  A
C893        C985   1.469       .  S
Mn894       O910   2.078       .  S
O895       Mn898   1.959       .  S
Mn896       O914   1.966       .  S
C897        C994   1.468       .  S
Mn898       O905   2.090       .  S
Mn898       O913   2.086       .  S
Mn898       O903   1.960       .  S
C899        O905   1.271       .  A
C899        O915   1.273       .  A
C899        C957   1.474       .  S
O900       Mn912   1.961       .  S
O900        C902   1.216       .  S
C902        C970   1.485       .  S
O904       Mn907   2.096       .  S
Mn907       O914   1.964       .  S
C909        C978   1.485       .  S
O911        C916   1.251       .  A
Mn912       O915   2.092       .  S
O914        C916   1.226       .  S
C916        C965   1.473       .  S
C917        C962   1.470       .  S
C917        C918   1.409       .  A
C917        C922   1.406       .  A
C918        C919   1.403       .  A
C918        H923   1.084       .  S
C919       C1005   1.484       .  S
C919        C920   1.398       .  A
C920        C921   1.400       .  A
C920        H924   1.083       .  S
C921       C1002   1.480       .  S
C921        C922   1.399       .  A
C922        H925   1.084       .  S
C926        C958   1.490       .  S
C926        C927   1.411       .  A
C926        C931   1.416       .  A
C927        C928   1.403       .  A
C927        H932   1.083       .  S
C928       C1030   1.484       .  S
C928        C929   1.401       .  A
C929        C930   1.401       .  A
C929        H933   1.085       .  S
C930       C1025   1.487       .  S
C930        C931   1.403       .  A
C931        H934   1.079       .  S
C935        C954   1.489       .  S
C935        C936   1.410       .  A
C935        C940   1.415       .  A
C936        C937   1.403       .  A
C936        H941   1.083       .  S
C937       C1041   1.484       .  S
C937        C938   1.402       .  A
C938        C939   1.401       .  A
C938        H942   1.085       .  S
C939       C1038   1.486       .  S
C939        C940   1.402       .  A
C940        H943   1.079       .  S
C944        C966   1.472       .  S
C944        C945   1.407       .  A
C944        C949   1.410       .  A
C945        C946   1.400       .  A
C945        H950   1.084       .  S
C946       C1018   1.481       .  S
C946        C947   1.398       .  A
C947        C948   1.399       .  A
C947        H951   1.083       .  S
C948       C1013   1.484       .  S
C948        C949   1.402       .  A
C949        H952   1.084       .  S
C953        C954   1.347       .  D
C953        H955   1.082       .  S
C954        H956   1.087       .  S
C957        C958   1.348       .  D
C957        H959   1.082       .  S
C958        H960   1.087       .  S
C961        C962   1.340       .  D
C961        H963   1.087       .  S
C962        H964   1.086       .  S
C965        C966   1.340       .  D
C965        H967   1.087       .  S
C966        H968   1.086       .  S
C969        C970   1.351       .  D
C969        H971   1.087       .  S
C970        H972   1.085       .  S
C973        C974   1.353       .  D
C973        H975   1.087       .  S
C974        H976   1.084       .  S
C977        C978   1.352       .  D
C977        H979   1.087       .  S
C978        H980   1.085       .  S
C981        C982   1.351       .  D
C981        H983   1.087       .  S
C982        H984   1.085       .  S
C985        C986   1.346       .  D
C985        H987   1.088       .  S
C986        H988   1.086       .  S
C989        C990   1.346       .  D
C989        H991   1.086       .  S
C990        H992   1.088       .  S
C993        C994   1.346       .  D
C993        H995   1.086       .  S
C994        H996   1.088       .  S
C997        C998   1.348       .  D
C997        H999   1.088       .  S
C998       H1000   1.086       .  S
C1001      C1002   1.344       .  D
C1001      H1003   1.088       .  S
C1002      H1004   1.086       .  S
C1005      C1006   1.349       .  D
C1005      H1007   1.086       .  S
C1006      H1008   1.088       .  S
C1013      C1014   1.347       .  D
C1013      H1015   1.086       .  S
C1014      H1016   1.088       .  S
C1017      C1018   1.346       .  D
C1017      H1019   1.088       .  S
C1018      H1020   1.086       .  S
C1021      C1022   1.340       .  D
C1022      H1024   1.087   1_554  S
C1025      C1026   1.352       .  D
C1025      H1027   1.087       .  S
C1026      H1028   1.085       .  S
C1029      C1030   1.351       .  D
C1029      H1031   1.085       .  S
C1030      H1032   1.087       .  S
C1033      C1034   1.346       .  D
C1033      H1035   1.087       .  S
C1034      H1036   1.083       .  S
C1037      C1038   1.352       .  D
C1037      H1039   1.084       .  S
C1038      H1040   1.087       .  S
C1041      C1042   1.352       .  D
C1041      H1043   1.087       .  S
C1042      H1044   1.085       .  S
C1045      C1046   1.346       .  D
C1045      H1047   1.087       .  S
