geometry optimzed in LAMMPS
_audit_creation_date              2020-11-30 
_audit_creation_method            'lammps2cif' 
_symmetry_space_group_name_H-M    'P1' 
_symmetry_Int_Tables_number       1 
_symmetry_cell_setting            triclinic 
loop_ 
_symmetry_equiv_pos_as_xyz 
  x,y,z 
_cell_length_a                    48.06032957 
_cell_length_b                    25.471367790343912 
_cell_length_c                    49.31072791888595 
_cell_angle_alpha                 89.71316181750574 
_cell_angle_beta                  89.48189099264317 
_cell_angle_gamma                 89.81487172662992 
loop_ 
_atom_site_label 
_atom_site_type_symbol 
_atom_site_fract_x 
_atom_site_fract_y 
_atom_site_fract_z 
_atom_site_charge 
C1          C  0.18566034  0.36598482  0.05219281     0.43100
N2          N  0.18422012  0.44283795  0.03310063     0.02000
C3          C  0.05935733  0.58186298  0.04499164    -0.05900
H4          H  0.04397255  0.39812763  0.03099324     0.07500
C5          C  0.10617403  0.40809185  0.43478127    -0.06300
Co6        Co  0.13309322  0.50102103  0.05093378     0.74200
N7          N  0.08250339  0.44190340  0.03165679    -0.25400
Co8        Co  0.08158650  0.49934517  0.00078262     0.74100
C9          C  0.07668756  0.40131286  0.43127797     0.43200
N10         N  0.16819192  0.44288207  0.45618145     0.01600
N11         N  0.08432804  0.44469382  0.46829716     0.01700
N12         N  0.09683141  0.58517105  0.07168721    -0.46300
H13         H  0.14853582  0.38494385  0.07953625     0.07500
N14         N  0.10281919  0.44328385  0.04953424     0.02000
N15         N  0.08305601  0.55648451  0.46996234     0.01700
C16         C  0.07275408  0.61191146  0.43806026     0.43300
N17         N  0.18798940  0.44719380  0.47399529    -0.24900
C18         C  0.16322540  0.60477426  0.06563836    -0.05800
N19         N  0.19720042  0.39657200  0.03251672    -0.46000
N20         N  0.06265625  0.58682639  0.46052182    -0.46200
C21         C  0.18635153  0.63657874  0.05456464     0.43100
N22         N  0.10180487  0.55649936  0.05010386     0.02000
N23         N  0.18432622  0.56326962  0.47414474    -0.24900
N24         N  0.16385062  0.44323713  0.05115883    -0.25400
N25         N  0.16542941  0.56102566  0.45508641     0.01600
H26         H  0.21063644  0.62559619  0.48689719     0.07500
H27         H  0.11444187  0.59963251  0.41704463     0.07500
N28         N  0.08042188  0.55400131  0.03344304    -0.25500
N29         N  0.10835143  0.44046094  0.45554867    -0.25100
N30         N  0.18378719  0.56116394  0.03402378     0.02000
C31         C  0.07554577  0.38361572  0.06553327     0.43400
C32         C  0.20435297  0.40488382  0.47249991    -0.06300
N33         N  0.10497872  0.55677413  0.45365311    -0.25100
H34         H  0.12180483  0.40497499  0.41905229     0.07500
N35         N  0.09920468  0.40996978  0.06962476    -0.46300
H36         H  0.22209864  0.40007498  0.48527446     0.07500
C37         C  0.18114948  0.63994650  0.45179330     0.43200
C38         C  0.16380042  0.39732622  0.06469498    -0.05800
Co39       Co  0.18624916  0.50393693  0.50382324     0.73800
N40         N  0.16883297  0.39661083  0.44385771    -0.46000
C41         C  0.07079814  0.60348516  0.07041657     0.43500
N42         N  0.19792396  0.60576608  0.03511074    -0.46000
Co43       Co  0.13690914  0.50008894  0.45473098     0.73900
C44         C  0.10091593  0.59280279  0.43431488    -0.06300
C45         C  0.06384750  0.40565331  0.04026895    -0.05900
N46         N  0.16306992  0.56006274  0.05149168    -0.25400
N47         N  0.06418697  0.42391210  0.45337877    -0.46200
H48         H  0.03810781  0.58274549  0.03796834     0.07500
C49         C  0.19585809  0.61119189  0.47308677    -0.06300
Cl50       Cl  0.13430490  0.50154932  0.00263186    -0.49300
C51         C  0.19088471  0.36879012  0.45335760     0.43200
H52         H  0.14730566  0.61434205  0.08016311     0.07400
N53         N  0.16260363  0.60599337  0.44165003    -0.46000
C54         C  0.42246496  0.39552013  0.07202033     0.43100
N55         N  0.41049138  0.44673530  0.03854797     0.02000
C56         C  0.28939601  0.59319238  0.03731200    -0.05900
H57         H  0.28050618  0.37049899  0.02113392     0.07500
C58         C  0.33159776  0.39217717  0.44280205    -0.06300
Co59       Co  0.35546975  0.49324063  0.05405874     0.74200
N60         N  0.30791929  0.43125105  0.03412206    -0.25400
Co61       Co  0.30593157  0.49187447  0.50502164     0.74100
C62         C  0.30940981  0.35927866  0.45397350     0.43200
N63         N  0.39216940  0.44615446  0.45755606     0.01600
N64         N  0.30967226  0.43439579  0.47446098     0.01700
N65         N  0.32422724  0.59575514  0.06703410    -0.46300
H66         H  0.37943580  0.40151551  0.09113487     0.07500
N67         N  0.32736464  0.43180601  0.05267554     0.02000
N68         N  0.30664623  0.55361619  0.47599581     0.01700
C69         C  0.30466077  0.63119126  0.45749861     0.43300
N70         N  0.41296857  0.44992386  0.47487577    -0.24900
C71         C  0.38483903  0.58159043  0.07719173    -0.05800
N72         N  0.43212777  0.42230689  0.04977657    -0.46000
N73         N  0.29339520  0.59965733  0.47696765    -0.46200
C74         C  0.40960988  0.61262783  0.07433609     0.43100
N75         N  0.32382211  0.55011137  0.05403446     0.02000
N76         N  0.40866038  0.56002983  0.47452708    -0.24900
N77         N  0.38788725  0.44050325  0.05359947    -0.25400
N78         N  0.38653203  0.56036332  0.45883829     0.01600
H79         H  0.45080219  0.58534339  0.46590809     0.07500
H80         H  0.34103477  0.61310437  0.42924213     0.07500
N81         N  0.30430291  0.54860852  0.03562550    -0.25500
N82         N  0.33047451  0.43707251  0.45695453    -0.25100
N83         N  0.40525856  0.56066105  0.03951592     0.02000
C84         C  0.30994264  0.35403702  0.05629375     0.43400
C85         C  0.43503615  0.42412548  0.46399407    -0.06300
N86         N  0.32659961  0.55395511  0.45756498    -0.25100
H87         H  0.34745133  0.38191232  0.42806736     0.07500
N88         N  0.32972430  0.38640069  0.06581626    -0.46300
H89         H  0.45602647  0.42541563  0.47167262     0.07500
C90         C  0.41640530  0.60307791  0.43457588     0.43200
C91         C  0.39301575  0.40712339  0.07374430    -0.05800
Co92       Co  0.41035686  0.50488251  0.00708192     0.73800
N93         N  0.39881724  0.41854920  0.43582222    -0.46000
C94         C  0.30297726  0.62567596  0.05774538     0.43500
N95         N  0.42237823  0.59591015  0.05075887    -0.50200
Co96       Co  0.35866182  0.49897048  0.45754165     0.73900
C97         C  0.32610173  0.60006505  0.44424823    -0.06300
C98         C  0.29554568  0.38412185  0.03528929    -0.05900
N99         N  0.38364770  0.55209432  0.05555806    -0.25400
N100        N  0.29686468  0.38822454  0.47358786    -0.46200
H101        H  0.27306240  0.60359641  0.02373573     0.07500
C102        C  0.42902540  0.58578715  0.46059285    -0.06300
Cl103      Cl  0.35781121  0.49709264  0.00585495    -0.49300
C104        C  0.42534689  0.40243700  0.43797639     0.43200
H105        H  0.37139418  0.57573311  0.09461645     0.07400
N106        N  0.39005441  0.58741217  0.43639604    -0.46000
C107        C  0.19833850  0.13648780  0.05755635     0.43100
N108        N  0.22096154  0.06197644  0.05746294     0.02000
C109        C  0.21215319  0.92090194  0.17901726    -0.05900
H110        H  0.21980113  0.06887117  0.19995005     0.07500
C111        C  0.33010360  0.07835534  0.13040789    -0.06300
Co112      Co  0.20542359  0.00074112  0.10714298     0.74200
N113        N  0.22567849  0.05412365  0.15714681    -0.25400
Co114      Co  0.25857990  0.99867502  0.15519736     0.74100
C115        C  0.32907780  0.10068837  0.15721587     0.43200
N116        N  0.30336087  0.05112345  0.06935500     0.01600
N117        N  0.29211781  0.05341483  0.15060311     0.01700
N118        N  0.18402439  0.91940481  0.14301144    -0.46300
H119        H  0.17283331  0.11212286  0.09476962     0.07500
N120        N  0.20776700  0.05711183  0.13693461     0.02000
N121        N  0.29047150  0.94072274  0.15192405     0.01700
C122        C  0.32686209  0.89258431  0.15971783     0.43300
N123        N  0.28298914  0.05385930  0.05186808    -0.24900
C124        C  0.18725393  0.89932253  0.07842115    -0.05800
N125        N  0.21910630  0.10859761  0.04495283    -0.46000
N126        N  0.30402453  0.91534616  0.17156948    -0.46200
C127        C  0.19603684  0.86833449  0.05486287     0.43100
N128        N  0.20710841  0.94431062  0.13718862     0.02000
N129        N  0.27978914  0.93655509  0.05262772    -0.24900
N130        N  0.20342844  0.05913998  0.07805662    -0.25400
N131        N  0.29975762  0.93437459  0.07063506     0.01600
H132        H  0.26433717  0.87975483  0.02506778     0.07500
H133        H  0.34381873  0.90720573  0.11726671     0.07500
N134        N  0.22475571  0.94541311  0.15763556    -0.25500
N135        N  0.30733495  0.04986990  0.12821631    -0.25100
N136        N  0.21879703  0.94223802  0.05631993     0.02000
C137        C  0.18471545  0.09045496  0.17025465     0.43400
C138        C  0.28578627  0.09879493  0.03789625    -0.06300
N139        N  0.30467467  0.93850966  0.12895030    -0.25100
H140        H  0.34753368  0.07579802  0.11646110     0.07500
N141        N  0.18412989  0.07961768  0.14384665    -0.46300
H142        H  0.27118240  0.11272720  0.02325832     0.07500
C143        C  0.30050592  0.85685373  0.05291394     0.43200
C144        C  0.18791424  0.10282614  0.07912792    -0.05800
Co145      Co  0.25064464  0.99909850  0.05330486     0.73800
N146        N  0.31941349  0.09335131  0.06891957    -0.46000
C147        C  0.18489247  0.90309739  0.16870349     0.43500
N148        N  0.21601397  0.89783003  0.04239736    -0.46000
Co149      Co  0.30376671  0.99340652  0.09899542     0.73900
C150        C  0.32670779  0.90807735  0.13167056    -0.06300
C151        C  0.21273745  0.07421344  0.17935625    -0.05900
N152        N  0.20246432  0.94317248  0.07776501    -0.25400
N153        N  0.30520298  0.08211433  0.16920509    -0.46200
H154        H  0.21948170  0.92118411  0.19968799     0.07500
C155        C  0.27924677  0.88998926  0.03995996    -0.06300
Cl156      Cl  0.25458918  0.99835259  0.10396501    -0.49300
C157        C  0.30990094  0.12591998  0.04941357     0.43200
H158        H  0.17368190  0.88864681  0.09501668     0.07400
N159        N  0.31213688  0.88771412  0.07181305    -0.46000
C160        C  0.18539162  0.11508315  0.34019572     0.43100
N161        N  0.21965704  0.06450096  0.35145614     0.02000
C162        C  0.20855994  0.89443744  0.46192965    -0.05900
H163        H  0.22577493  0.10462144  0.48543329     0.07500
C164        C  0.31303024  0.09664059  0.43552023    -0.06300
Co165      Co  0.19975089  0.00543473  0.40083096     0.74200
N166        N  0.21629660  0.05632731  0.45193832    -0.25400
Co167      Co  0.24596030  0.99659157  0.45256773     0.74100
C168        C  0.29938439  0.13010800  0.45518134     0.43200
N169        N  0.30122166  0.05668076  0.37582902     0.01600
N170        N  0.27757581  0.05549164  0.45293527     0.01700
N171        N  0.18061402  0.90173106  0.42586010    -0.46300
H172        H  0.16241476  0.09892640  0.37973871     0.07500
N173        N  0.19941999  0.06116278  0.43137963     0.02000
N174        N  0.27605963  0.93583910  0.45143215     0.01700
C175        C  0.29754561  0.86120400  0.45517709     0.43300
N176        N  0.28489583  0.05879426  0.35440056    -0.24900
C177        C  0.17780825  0.92742064  0.36307420    -0.05800
N178        N  0.20937251  0.09250899  0.33081954    -0.46000
N179        N  0.27572173  0.89014455  0.46461338    -0.46200
C180        C  0.18081885  0.91880610  0.33439916     0.43100
N181        N  0.19672022  0.94368821  0.42848174     0.02000
N182        N  0.28434089  0.94966032  0.35145433    -0.24900
N183        N  0.20226917  0.06449394  0.37235518    -0.25400
N184        N  0.29961824  0.94418561  0.37352043     0.01600
H185        H  0.29400540  0.93153168  0.30948075     0.07500
H186        H  0.32746163  0.88188888  0.42036106     0.07500
N187        N  0.21401322  0.93994601  0.44891787    -0.25500
N188        N  0.29780175  0.05279769  0.43483138    -0.25100
N189        N  0.21831696  0.95393484  0.34920705     0.02000
C190        C  0.19505475  0.13521842  0.45262796     0.43400
C191        C  0.29887340  0.08359311  0.33435708    -0.06300
N192        N  0.29601400  0.93746937  0.43299914    -0.25100
H193        H  0.32938727  0.10698966  0.42134706     0.07500
N194        N  0.18682438  0.10751085  0.43076212    -0.46300
H195        H  0.29282446  0.08332593  0.31329702     0.07500
C196        C  0.32454293  0.90580358  0.34305453     0.43200
C197        C  0.18121914  0.09685991  0.36759255    -0.05800
Co198      Co  0.25170742  0.00665948  0.35101031     0.73800
N199        N  0.32533403  0.07961003  0.37161151    -0.46000
C200        C  0.18656038  0.86823265  0.44631339     0.43500
N201        N  0.20650329  0.93586558  0.32684910    -0.46000
Co202      Co  0.29860532  0.99755147  0.40464532     0.73900
C203        C  0.31085490  0.89285592  0.43415432    -0.06300
C204        C  0.21387955  0.09918732  0.46734968    -0.05900
N205        N  0.20072527  0.95230217  0.36993900    -0.25400
N206        N  0.27715940  0.10238853  0.46486654    -0.46200
H207        H  0.21986092  0.88015868  0.47903797     0.07500
C208        C  0.29884981  0.92721785  0.33075174    -0.06300
Cl209      Cl  0.24901623  0.00136141  0.40213973    -0.49300
C210        C  0.32607501  0.09675078  0.34596348     0.43200
H211        H  0.15899340  0.92654061  0.37526048     0.07400
N212        N  0.32296248  0.91839923  0.36926276    -0.46000
C213        C  0.05144854  0.36273076  0.17732028     0.43100
N214        N  0.03257353  0.36920912  0.21753093     0.02000
C215        C  0.04853680  0.14669667  0.29905883    -0.05900
H216        H  0.04254354  0.09341989  0.21997901     0.07500
C217        C  0.43140476  0.21626619  0.20942868    -0.06300
Co218      Co  0.05219933  0.27826065  0.25110464     0.74200
N219        N  0.03540382  0.17631672  0.22655385    -0.25400
Co220      Co  0.50217249  0.18024261  0.25491450     0.74100
C221        C  0.43529511  0.16373397  0.19944177     0.43200
N222        N  0.45299950  0.33973098  0.22336799     0.01600
N223        N  0.46925253  0.18274522  0.22601439     0.01700
N224        N  0.07509480  0.21865861  0.29616569    -0.46300
H225        H  0.07750763  0.29252655  0.19123868     0.07500
N226        N  0.05245761  0.21671623  0.22408014     0.02000
N227        N  0.46939811  0.18538452  0.28376231     0.01700
C228        C  0.43207262  0.16647466  0.30640224     0.43300
N229        N  0.47171805  0.37702720  0.22254748    -0.24900
C230        C  0.06749624  0.33966422  0.30224486    -0.05800
N231        N  0.03160175  0.38830554  0.19227374    -0.46000
N232        N  0.45621485  0.14602772  0.29624358    -0.46200
C233        C  0.05582675  0.38375307  0.31675653     0.43100
N234        N  0.05235033  0.22422650  0.28199887     0.02000
N235        N  0.47492396  0.37862604  0.28279844    -0.24900
N236        N  0.05097508  0.33107744  0.21944766    -0.25400
N237        N  0.45599171  0.34156170  0.28455437     0.01600
H238        H  0.48986487  0.43421440  0.31191822     0.07500
H239        H  0.41414320  0.24819182  0.30017290     0.07500
N240        N  0.03560049  0.18316119  0.28328292    -0.25500
N241        N  0.45254173  0.22430903  0.22606284    -0.25100
N242        N  0.03540373  0.37697221  0.27849210     0.02000
C243        C  0.07666836  0.15275900  0.20781049     0.43400
C244        C  0.46804430  0.40583150  0.20011613    -0.06300
N245        N  0.45393616  0.22827642  0.28403115    -0.25100
H246        H  0.41334002  0.24139514  0.20754852     0.07500
N247        N  0.07647021  0.20419938  0.21280681    -0.46300
H248        H  0.48122933  0.43785970  0.19374060     0.07500
C249        C  0.45535293  0.37674790  0.32462299     0.43200
C250        C  0.06386931  0.32488108  0.19572525    -0.05800
Co251      Co  0.50368939  0.37777704  0.25015604     0.73800
N252        N  0.43724429  0.33930942  0.20141204    -0.46000
C253        C  0.07492069  0.17161849  0.30796965     0.43500
N254        N  0.03617797  0.40529284  0.30091041    -0.46000
Co255      Co  0.45367015  0.28407413  0.25442446     0.73900
C256        C  0.43153362  0.22118577  0.29926814    -0.06300
C257        C  0.04901391  0.13360576  0.21673336    -0.05900
N258        N  0.05314986  0.33773100  0.27910060    -0.25400
N259        N  0.45878983  0.14405622  0.21105803    -0.46200
H260        H  0.04200853  0.10635349  0.30154413     0.07500
C261        C  0.47526853  0.40411644  0.30668296    -0.06300
Cl262      Cl  0.50290822  0.27933134  0.25249096    -0.49300
C263        C  0.44542073  0.38025119  0.18572907     0.43200
H264        H  0.08255500  0.31137006  0.30925418     0.07400
N265        N  0.44425328  0.33865131  0.30907202    -0.46000
C266        C  0.07421829  0.84457642  0.19955254     0.43100
N267        N  0.03786325  0.82597749  0.22369483     0.02000
C268        C  0.02619282  0.60920859  0.30785964    -0.05900
H269        H  0.01415209  0.57749298  0.19409858     0.07500
C270        C  0.43359061  0.68770982  0.20236354    -0.06300
Co271      Co  0.05085046  0.72479840  0.25321385     0.74200
N272        N  0.02818170  0.63342872  0.22321522    -0.25400
Co273      Co  0.49723343  0.63618498  0.25276544     0.74100
C274        C  0.44397158  0.64734468  0.18438908     0.43200
N275        N  0.45384611  0.79783607  0.22618513     0.01600
N276        N  0.46705481  0.64546587  0.22190988     0.01700
N277        N  0.05890497  0.67179874  0.30869212    -0.46300
H278        H  0.09390689  0.76498735  0.20824586     0.07500
N279        N  0.04868745  0.66732443  0.22320164     0.02000
N280        N  0.46649961  0.64122160  0.28308907     0.01700
C281        C  0.44598112  0.63626080  0.32185444     0.43300
N282        N  0.47273380  0.83530279  0.22499729    -0.24900
C283        C  0.07806229  0.79262368  0.29269986    -0.05800
N284        N  0.05039410  0.86503286  0.21025705    -0.46000
N285        N  0.46468497  0.61239514  0.30549182    -0.46200
C286        C  0.07845629  0.84853594  0.29694927     0.43100
N287        N  0.04702903  0.66914498  0.28445872     0.02000
N288        N  0.47309737  0.83533276  0.28309524    -0.24900
N289        N  0.05347125  0.78297841  0.22381227    -0.25400
N290        N  0.45507122  0.79628070  0.28402268     0.01600
H291        H  0.47131299  0.91267027  0.30138544     0.07500
H292        H  0.42161023  0.71199032  0.31469796     0.07500
N293        N  0.02709268  0.63387418  0.28371366    -0.25500
N294        N  0.44936750  0.68471983  0.22443652    -0.25100
N295        N  0.03861290  0.82697169  0.28069021     0.02000
C296        C  0.05350779  0.62653178  0.18497303     0.43400
C297        C  0.46323125  0.87261147  0.20765552    -0.06300
N298        N  0.45013226  0.68256367  0.28413299    -0.25100
H299        H  0.41830657  0.71767164  0.19818285     0.07500
N300        N  0.06390254  0.66527959  0.20061352    -0.46300
H301        H  0.47268686  0.91046917  0.20395451     0.07500
C302        C  0.43656010  0.85211698  0.31132598     0.43200
C303        C  0.07598611  0.79064847  0.20853561    -0.05800
Co304      Co  0.00554571  0.83233714  0.25311981     0.73800
N305        N  0.43230874  0.80671976  0.21080488    -0.46000
C306        C  0.04680592  0.63517264  0.32493111     0.43500
N307        N  0.05331563  0.86765035  0.28928403    -0.46000
Co308      Co  0.45202640  0.73998604  0.25482396     0.73900
C309        C  0.43592556  0.68223693  0.30764646    -0.06300
C310        C  0.02962833  0.60549441  0.20030680    -0.05900
N311        N  0.05368098  0.78342236  0.28128504    -0.25400
N312        N  0.46506404  0.62260978  0.19767865    -0.46200
H313        H  0.01074989  0.58092670  0.31381407     0.07500
C314        C  0.46281320  0.87361355  0.29955050    -0.06300
Cl315      Cl  0.50149208  0.73363953  0.25340242    -0.49300
C316        C  0.43642581  0.85196240  0.19792208     0.43200
H317        H  0.09545131  0.76561334  0.29217994     0.07400
N318        N  0.43377047  0.80491392  0.30016548    -0.46000
C319        C  0.35254936  0.89150731  0.33190029    -0.04700
C320        C  0.36854708  0.92732578  0.31611210    -0.01800
C321        C  0.39777555  0.91990943  0.31286821     0.03200
C322        C  0.41093463  0.87517870  0.32392816    -0.04700
C323        C  0.39518497  0.84150894  0.34098734    -0.01800
C324        C  0.36633373  0.84884513  0.34444306     0.03200
C325        C  0.35519225  0.97189633  0.30328690     0.37800
C326        C  0.40886847  0.79886021  0.35534715     0.37800
C327        C  0.35071553  0.81192833  0.36118730     0.36200
C328        C  0.41463654  0.95997477  0.30000739     0.36200
N329        N  0.33846004  0.78235775  0.37455553    -0.38600
N330        N  0.42843481  0.99279500  0.29081333    -0.38600
N331        N  0.41948841  0.76500780  0.36711353    -0.38000
N332        N  0.34478409  0.00722263  0.29251674    -0.38000
C333        C  0.10452344  0.87941111  0.29886547    -0.04700
C334        C  0.10534660  0.92363939  0.31566959    -0.01800
C335        C  0.13118577  0.94281584  0.32419375     0.03200
C336        C  0.15615899  0.91618360  0.31670923    -0.04700
C337        C  0.15551830  0.87952283  0.29569950    -0.01800
C338        C  0.12967265  0.86172129  0.28629660     0.03200
C339        C  0.07975904  0.94739441  0.32563296     0.37800
C340        C  0.18130248  0.85762727  0.28509618     0.37800
C341        C  0.12949906  0.82544426  0.26376622     0.36200
C342        C  0.13156902  0.98820809  0.34181187     0.36200
N343        N  0.13038129  0.79660715  0.24572983    -0.38600
N344        N  0.13113412  0.02387688  0.35622809    -0.38600
N345        N  0.20186003  0.84026820  0.27658185    -0.38000
N346        N  0.05947705  0.96674829  0.33359720    -0.38000
C347        C  0.40576686  0.13747049  0.31159635    -0.04700
C348        C  0.40427149  0.10026924  0.33260744    -0.01800
C349        C  0.37812647  0.08250401  0.34188045     0.03200
C350        C  0.35314376  0.10552727  0.33173973    -0.04700
C351        C  0.35470898  0.13877348  0.30894152    -0.01800
C352        C  0.38083788  0.15311872  0.29826861     0.03200
C353        C  0.42946558  0.08271043  0.34594291     0.37800
C354        C  0.32965002  0.16071902  0.29711136     0.37800
C355        C  0.38160852  0.18479915  0.27368290     0.36200
C356        C  0.37740801  0.03984824  0.36153018     0.36200
N357        N  0.38181905  0.21019194  0.25415643    -0.38600
N358        N  0.37716123  0.00553491  0.37701108    -0.38600
N359        N  0.30987579  0.17858617  0.28746461    -0.38000
N360        N  0.44938033  0.06871059  0.35688039    -0.38000
C361        C  0.10253352  0.15150046  0.31720809    -0.04700
C362        C  0.11814186  0.18509918  0.33412075    -0.01800
C363        C  0.14710808  0.17861648  0.33663301     0.03200
C364        C  0.16078949  0.13525144  0.32501368    -0.04700
C365        C  0.14582432  0.10283271  0.30714332    -0.01800
C366        C  0.11680475  0.11105140  0.30311723     0.03200
C367        C  0.10438728  0.22694746  0.34907623     0.37800
C368        C  0.16046574  0.06148948  0.29293852     0.37800
C369        C  0.10181561  0.07915696  0.28399164     0.36200
C370        C  0.16348297  0.21669245  0.35126941     0.36200
N371        N  0.08939429  0.05436739  0.26872435    -0.38600
N372        N  0.17741002  0.24658818  0.36229249    -0.38600
N373        N  0.17265727  0.02889513  0.28167180    -0.38000
N374        N  0.09355755  0.26017574  0.36117301    -0.38000
C375        C  0.41225753  0.87470212  0.18390041    -0.04700
C376        C  0.39475971  0.90998186  0.19798775    -0.01800
C377        C  0.36590327  0.91222214  0.19247495     0.03200
C378        C  0.35450766  0.88057494  0.17192841    -0.04700
C379        C  0.37238592  0.84573865  0.15760776    -0.01800
C380        C  0.40097305  0.84358131  0.16321003     0.03200
C381        C  0.40644083  0.94226547  0.21897026     0.37800
C382        C  0.36135375  0.81228179  0.13658708     0.37800
C383        C  0.41878574  0.80672922  0.14869086     0.36200
C384        C  0.34791230  0.94514033  0.20879842     0.36200
N385        N  0.43307478  0.77735101  0.13732976    -0.38600
N386        N  0.33330617  0.97004807  0.22237055    -0.38600
N387        N  0.35229327  0.78719411  0.11933552    -0.38000
N388        N  0.41623675  0.96816972  0.23546496    -0.38000
C389        C  0.15791001  0.88609954  0.18112620    -0.04700
C390        C  0.14401453  0.91472901  0.20176292    -0.01800
C391        C  0.11530445  0.90514619  0.20732484     0.03200
C392        C  0.09973784  0.87238804  0.19005035    -0.04700
C393        C  0.11299522  0.85094784  0.16725115    -0.01800
C394        C  0.14208290  0.85179439  0.16507925     0.03200
C395        C  0.15865388  0.95546681  0.21601584     0.37800
C396        C  0.09623385  0.83075933  0.14541877     0.37800
C397        C  0.15633896  0.81693485  0.14651664     0.36200
C398        C  0.10161114  0.92913654  0.23032631     0.36200
N399        N  0.16939438  0.78943828  0.13284146    -0.38600
N400        N  0.09013745  0.94777403  0.24860957    -0.38600
N401        N  0.08228667  0.81642772  0.12796733    -0.38000
N402        N  0.17048840  0.98872009  0.22680046    -0.38000
C403        C  0.35540051  0.12024294  0.17000573    -0.04700
C404        C  0.36315501  0.10636740  0.19667195    -0.01800
C405        C  0.39118242  0.11217661  0.20508429     0.03200
C406        C  0.41133155  0.13515655  0.18765409    -0.04700
C407        C  0.40341862  0.14969433  0.16128413    -0.01800
C408        C  0.37556783  0.14497025  0.15301025     0.03200
C409        C  0.34197300  0.09132279  0.21621145     0.37800
C410        C  0.42420498  0.16947426  0.14238935     0.37800
C411        C  0.36736781  0.16909773  0.12750974     0.36200
C412        C  0.39942632  0.09449459  0.23174072     0.36200
N413        N  0.36075654  0.18837134  0.10724987    -0.38600
N414        N  0.40615962  0.07967096  0.25289681    -0.38600
N415        N  0.44070375  0.18395508  0.12688615    -0.38000
N416        N  0.32484276  0.08130897  0.23203599    -0.38000
C417        C  0.15782857  0.09458436  0.18578142    -0.04700
C418        C  0.15510436  0.12951491  0.20756955    -0.01800
C419        C  0.12833845  0.14431477  0.21699118     0.03200
C420        C  0.10389887  0.12451667  0.20442894    -0.04700
C421        C  0.10676477  0.08337815  0.18574006    -0.01800
C422        C  0.13353809  0.06826940  0.17646869     0.03200
C423        C  0.17977691  0.15241510  0.21933733     0.37800
C424        C  0.08220011  0.05859555  0.17477662     0.37800
C425        C  0.13563984  0.02637374  0.15671563     0.36200
C426        C  0.12628854  0.18093578  0.23935554     0.36200
N427        N  0.13685036  0.99333203  0.14072870    -0.38600
N428        N  0.12510927  0.21038660  0.25712016    -0.38600
N429        N  0.06274413  0.03839108  0.16599219    -0.38000
N430        N  0.19952314  0.17036935  0.22877642    -0.38000
C431        C  0.30306149  0.68506841  0.05788295    -0.04700
C432        C  0.28054359  0.71350403  0.06925863    -0.01800
C433        C  0.27974931  0.76930395  0.06779381     0.03200
C434        C  0.30131362  0.79769494  0.05463575    -0.04700
C435        C  0.32487990  0.76962430  0.04537362    -0.01800
C436        C  0.32563506  0.71386708  0.04659230     0.03200
C437        C  0.25886736  0.68537099  0.08380338     0.37800
C438        C  0.34895875  0.79856075  0.03578159     0.37800
C439        C  0.34995236  0.68641384  0.03644607     0.36200
C440        C  0.25799467  0.79778627  0.08198749     0.36200
N441        N  0.36960343  0.66500630  0.02845184    -0.38600
N442        N  0.24101229  0.82061011  0.09385225    -0.38600
N443        N  0.36826217  0.82220907  0.02878231    -0.38000
N444        N  0.24169177  0.66295382  0.09563876    -0.38000
C445        C  0.31203348  0.29535773  0.05728383    -0.04700
C446        C  0.29192606  0.26550882  0.07144975    -0.01800
C447        C  0.29145543  0.21020737  0.06892836     0.03200
C448        C  0.31154497  0.18412671  0.05279029    -0.04700
C449        C  0.33419610  0.21316258  0.04239242    -0.01800
C450        C  0.33417715  0.26870853  0.04409720     0.03200
C451        C  0.27390292  0.29140729  0.09082419     0.37800
C452        C  0.35842195  0.18563677  0.03208412     0.37800
C453        C  0.35755521  0.29830952  0.03349217     0.36200
C454        C  0.27205517  0.17887190  0.08468513     0.36200
N455        N  0.37640007  0.32220987  0.52557755    -0.38600
N456        N  0.25786488  0.15088260  0.09705207    -0.38600
N457        N  0.37814468  0.16349059  0.02479579    -0.38000
N458        N  0.26063223  0.31261454  0.10709917    -0.38000
C459        C  0.30307712  0.69030737  0.45728089    -0.04700
C460        C  0.32670097  0.72172404  0.46301732    -0.01800
C461        C  0.32476299  0.77731381  0.46288220     0.03200
C462        C  0.29946708  0.80240973  0.45652348    -0.04700
C463        C  0.27744128  0.77135857  0.44691107    -0.01800
C464        C  0.27880285  0.71579417  0.44810750     0.03200
C465        C  0.35372271  0.69786074  0.46692568     0.37800
C466        C  0.25631408  0.79723566  0.43111342     0.37800
C467        C  0.25692833  0.68440098  0.43657800     0.36200
C468        C  0.34952312  0.80881856  0.46658038     0.36200
N469        N  0.24043795  0.65765697  0.42685957    -0.38600
N470        N  0.36938555  0.83396363  0.46876115    -0.38600
N471        N  0.24154209  0.82115950  0.41744249    -0.38000
N472        N  0.37586814  0.68072302  0.46938680    -0.38000
C473        C  0.30207162  0.18889354  0.45447814    -0.04700
C474        C  0.32780740  0.21285845  0.46041417    -0.01800
C475        C  0.33057916  0.26825921  0.45952572     0.03200
C476        C  0.30763249  0.30047025  0.45252358    -0.04700
C477        C  0.28348405  0.27609619  0.44258399    -0.01800
C478        C  0.28111130  0.22055768  0.44275186     0.03200
C479        C  0.35219578  0.18024169  0.46448838     0.37800
C480        C  0.26270969  0.30806080  0.42919181     0.37800
C481        C  0.25954776  0.19569889  0.42705076     0.36200
C482        C  0.35756926  0.29170704  0.46395655     0.36200
N483        N  0.24302639  0.17558040  0.41375318    -0.38600
N484        N  0.37920886  0.31061799  0.46672007    -0.38600
N485        N  0.24659001  0.33389506  0.41800112    -0.38000
N486        N  0.37173297  0.15394262  0.46668192    -0.38000
C487        C  0.44172664  0.62406616  0.35096345    -0.04700
C488        C  0.42315669  0.58411018  0.35818266    -0.01800
C489        C  0.41736332  0.57365369  0.38562681     0.03200
C490        C  0.42886070  0.60557264  0.40653013    -0.04700
C491        C  0.44891341  0.64356002  0.39921841    -0.01800
C492        C  0.45530841  0.65287251  0.37143575     0.03200
C493        C  0.40962097  0.55381872  0.33713844     0.37800
C494        C  0.46231528  0.67384949  0.42012906     0.37800
C495        C  0.47498393  0.69344064  0.36375923     0.36200
C496        C  0.39913524  0.52970965  0.39171354     0.36200
N497        N  0.49037370  0.72619391  0.35738241    -0.38600
N498        N  0.38412843  0.49510626  0.39581225    -0.38600
N499        N  0.47314479  0.69769995  0.43690728    -0.38000
N500        N  0.39897856  0.52934045  0.32048731    -0.38000
C501        C  0.42077505  0.63925524  0.09930025    -0.04700
C502        C  0.44918677  0.64058383  0.10620737    -0.01800
C503        C  0.45690964  0.64537463  0.13394555     0.03200
C504        C  0.43650334  0.64411929  0.15488568    -0.04700
C505        C  0.40837266  0.64995278  0.14736528    -0.01800
C506        C  0.40115815  0.65293307  0.11983201     0.03200
C507        C  0.47010763  0.64007054  0.08493266     0.37800
C508        C  0.38642565  0.65232368  0.16777363     0.37800
C509        C  0.37298712  0.66819747  0.11273067     0.36200
C510        C  0.48480847  0.66038292  0.14078244     0.36200
N511        N  0.35033592  0.67869203  0.10704562    -0.38600
N512        N  0.00632334  0.67628976  0.14683063    -0.38600
N513        N  0.36879868  0.65438322  0.18388669    -0.38000
N514        N  0.98672026  0.64043006  0.06779564    -0.38000
C515        C  0.44143364  0.39131619  0.41247435    -0.04700
C516        C  0.43864508  0.34237040  0.39975027    -0.01800
C517        C  0.44495907  0.33650088  0.37173568     0.03200
C518        C  0.45220960  0.38072547  0.35532814    -0.04700
C519        C  0.45702509  0.42882586  0.36893613    -0.01800
C520        C  0.45304811  0.43304631  0.39738276     0.03200
C521        C  0.42993258  0.29736768  0.41583403     0.37800
C522        C  0.46449037  0.47533216  0.35373995     0.37800
C523        C  0.46099710  0.48049033  0.41124216     0.36200
C524        C  0.44564772  0.28385501  0.36101432     0.36200
N525        N  0.46809802  0.51784699  0.42240807    -0.38600
N526        N  0.44684165  0.24036995  0.35452443    -0.38600
N527        N  0.47031158  0.51246519  0.34140209    -0.38000
N528        N  0.42338541  0.26099547  0.42849048    -0.38000
C529        C  0.43697300  0.39250962  0.09857383    -0.04700
C530        C  0.44358176  0.34383504  0.11048271    -0.01800
C531        C  0.44768806  0.34024875  0.13888021     0.03200
C532        C  0.44121427  0.38354950  0.15584659    -0.04700
C533        C  0.43539869  0.43250386  0.14365469    -0.01800
C534        C  0.43606583  0.43720851  0.11519635     0.03200
C535        C  0.44757810  0.29860525  0.09324188     0.37800
C536        C  0.43114234  0.47879570  0.16024091     0.37800
C537        C  0.44014209  0.48761004  0.10267076     0.36200
C538        C  0.46160027  0.29480681  0.15022715     0.36200
N539        N  0.44579207  0.52660141  0.09208854    -0.38600
N540        N  0.47374315  0.25994101  0.15956920    -0.38600
N541        N  0.42786664  0.51563157  0.17355103    -0.38000
N542        N  0.45097602  0.26289406  0.07916961    -0.38000
C543        C  0.17985728  0.81020525  0.44625167    -0.04700
C544        C  0.17055194  0.78471508  0.47019716    -0.01800
C545        C  0.16946074  0.72903175  0.47160331     0.03200
C546        C  0.17823283  0.69836387  0.44930979    -0.04700
C547        C  0.18231431  0.72357166  0.42415858    -0.01800
C548        C  0.18285789  0.77910400  0.42248495     0.03200
C549        C  0.15879859  0.81589597  0.99193822     0.37800
C550        C  0.18557689  0.69223028  0.39982412     0.37800
C551        C  0.18710428  0.80273013  0.39605858     0.36200
C552        C  0.15579443  0.70312001  0.49426656     0.36200
N553        N  0.19104726  0.81830401  0.37431167    -0.38600
N554        N  0.14394266  0.68150873  0.01150597    -0.38600
N555        N  0.18795895  0.66733566  0.38036825    -0.38000
N556        N  0.14847628  0.84088526  0.00880189    -0.38000
C557        C  0.19334414  0.19488201  0.45381271    -0.04700
C558        C  0.17428648  0.22316231  0.43734750    -0.01800
C559        C  0.17525765  0.27892200  0.43539179     0.03200
C560        C  0.19284100  0.30888460  0.45245194    -0.04700
C561        C  0.21059704  0.28021288  0.47007099    -0.01800
C562        C  0.21153388  0.22476361  0.47003166     0.03200
C563        C  0.15237031  0.19550982  0.42330715     0.37800
C564        C  0.22776905  0.30559755  0.48990980     0.37800
C565        C  0.23182975  0.20045787  0.48757676     0.36200
C566        C  0.15831550  0.30453552  0.41504099     0.36200
N567        N  0.24891058  0.18627639  0.50223128    -0.38600
N568        N  0.14499704  0.32365089  0.39820979    -0.38600
N569        N  0.24165655  0.32097628  0.50709154    -0.38000
N570        N  0.13452471  0.17389902  0.41244259    -0.38000
C571        C  0.19184867  0.80950258  0.05175908    -0.04700
C572        C  0.21000646  0.77766759  0.03615624    -0.01800
C573        C  0.20907648  0.72214046  0.03798317     0.03200
C574        C  0.18970909  0.69606892  0.05529653    -0.04700
C575        C  0.17160093  0.72835813  0.07089586    -0.01800
C576        C  0.17075272  0.78343379  0.06681474     0.03200
C577        C  0.22924202  0.79969662  0.01657534     0.37800
C578        C  0.15574077  0.70678865  0.09331980     0.37800
C579        C  0.14635205  0.81227986  0.07582548     0.36200
C580        C  0.22949186  0.69366172  0.02207624     0.36200
N581        N  0.12683213  0.83579714  0.08248153    -0.38600
N582        N  0.24679990  0.67664446  0.00825840    -0.38600
N583        N  0.14388211  0.69031715  0.11202105    -0.38000
N584        N  0.24534175  0.80974153  0.99982227    -0.38000
C585        C  0.19398262  0.19539812  0.05646857    -0.04700
C586        C  0.19890985  0.22730351  0.07956554    -0.01800
C587        C  0.19593740  0.28263583  0.07808109     0.03200
C588        C  0.18764923  0.30716730  0.05381065    -0.04700
C589        C  0.17722451  0.27499930  0.03295364    -0.01800
C590        C  0.18050621  0.21943684  0.03420319     0.03200
C591        C  0.20438860  0.20389907  0.10581127     0.37800
C592        C  0.15972878  0.29863530  0.01240756     0.37800
C593        C  0.16627174  0.18663188  0.01489907     0.36200
C594        C  0.19893058  0.31406027  0.10234064     0.36200
N595        N  0.15409136  0.16055564  0.50000315    -0.38600
N596        N  0.20090537  0.33873857  0.12186974    -0.38600
N597        N  0.14513969  0.31777894  0.49662086    -0.38000
N598        N  0.20817579  0.18674172  0.12724126    -0.38000
C599        C  0.05661994  0.62416371  0.41307312    -0.04700
C600        C  0.06131237  0.67216291  0.39954792    -0.01800
C601        C  0.05671985  0.67698227  0.37124862     0.03200
C602        C  0.04889013  0.63258268  0.35564113    -0.04700
C603        C  0.04226541  0.58564504  0.36996067    -0.01800
C604        C  0.04477631  0.58257205  0.39849821     0.03200
C605        C  0.07136974  0.71653027  0.41495167     0.37800
C606        C  0.03474794  0.53881252  0.35543266     0.37800
C607        C  0.03615665  0.53562532  0.41290248     0.36200
C608        C  0.05952437  0.72833335  0.35888770     0.36200
N609        N  0.02880127  0.49877523  0.42468287    -0.38600
N610        N  0.06146943  0.77034078  0.35009039    -0.38600
N611        N  0.52883108  0.50149480  0.34359567    -0.38000
N612        N  0.07926311  0.75187138  0.42734513    -0.38000
C613        C  0.05759440  0.61803934  0.09677512    -0.04700
C614        C  0.06965993  0.66061831  0.11050264    -0.01800
C615        C  0.07136945  0.66080901  0.13916120     0.03200
C616        C  0.05829739  0.62101956  0.15476502    -0.04700
C617        C  0.04689980  0.57791489  0.14088029    -0.01800
C618        C  0.04479560  0.57817610  0.11230692     0.03200
C619        C  0.08158879  0.70295332  0.09453435     0.37800
C620        C  0.04274133  0.52969761  0.15578346     0.37800
C621        C  0.03001531  0.53682261  0.09875676     0.36200
C622        C  0.09065597  0.69593850  0.15200227     0.36200
N623        N  0.01744489  0.50509352  0.08761491    -0.38600
N624        N  0.10737153  0.72132779  0.16231398    -0.38600
N625        N  0.04126562  0.49228655  0.16903849    -0.38000
N626        N  0.09066711  0.73617505  0.08108753    -0.38000
C627        C  0.06598350  0.40481229  0.40277307    -0.04700
C628        C  0.04657975  0.36787511  0.39334474    -0.01800
C629        C  0.04252985  0.36156341  0.36510034     0.03200
C630        C  0.05779107  0.39237677  0.34624465    -0.04700
C631        C  0.07594657  0.43089570  0.35542575    -0.01800
C632        C  0.07944207  0.43847685  0.38334876     0.03200
C633        C  0.03198327  0.33455991  0.41261495     0.37800
C634        C  0.09142194  0.46257104  0.33581280     0.37800
C635        C  0.09875501  0.47907701  0.39113768     0.36200
C636        C  0.02397213  0.32134040  0.35530956     0.36200
N637        N  0.11564158  0.50981423  0.39581522    -0.38600
N638        N  0.00953856  0.28883479  0.34721758    -0.38600
N639        N  0.10357666  0.48774365  0.32013536    -0.38000
N640        N  0.02036074  0.30810977  0.42810978    -0.38000
C641        C  0.05504800  0.36146133  0.14673943    -0.04700
C642        C  0.07928617  0.33789623  0.13506337    -0.01800
C643        C  0.08166361  0.33147272  0.10679763     0.03200
C644        C  0.06280175  0.35651782  0.08934230    -0.04700
C645        C  0.03756840  0.37483350  0.10019874    -0.01800
C646        C  0.03415366  0.37959680  0.12866577     0.03200
C647        C  0.10386468  0.32688717  0.15103143     0.37800
C648        C  0.01535012  0.38940674  0.08196873     0.37800
C649        C  0.01145380  0.41134824  0.13824966     0.36200
C650        C  0.10505716  0.30280309  0.09518045     0.36200
N651        N  0.49442139  0.44102875  0.14444578    -0.38600
N652        N  0.12344689  0.27946886  0.08582483    -0.38600
N653        N  0.49752596  0.40042678  0.06735808    -0.38000
N654        N  0.12379757  0.31839867  0.16334006    -0.38000
C655        C  0.18566371  0.36598486  0.55219412     0.43100
N656        N  0.18422247  0.44283675  0.53310040     0.02000
C657        C  0.05935850  0.58185715  0.54499218    -0.05900
H658        H  0.04397499  0.39812386  0.53099388     0.07500
C659        C  0.10617358  0.40809778  0.93478105    -0.06300
Co660      Co  0.13309527  0.50101900  0.55093331     0.74200
N661        N  0.08250573  0.44189971  0.53165685    -0.25400
Co662      Co  0.08158785  0.49934074  0.50078253     0.74100
C663        C  0.07668733  0.40131827  0.93127764     0.43200
N664        N  0.16819066  0.44288474  0.95618187     0.01600
N665        N  0.08432704  0.44469877  0.96829701     0.01700
N666        N  0.09683304  0.58516684  0.57168696    -0.46300
H667        H  0.14853940  0.38494482  0.57953771     0.07500
N668        N  0.10282177  0.44328065  0.54953407     0.02000
N669        N  0.08305536  0.55648972  0.96996298     0.01700
C670        C  0.07275337  0.61191843  0.93806162     0.43300
N671        N  0.18798794  0.44719591  0.97399590    -0.24900
C672        C  0.16322599  0.60477464  0.56563646    -0.05800
N673        N  0.19720311  0.39657105  0.53251712    -0.46000
N674        N  0.06265575  0.58683259  0.96052300    -0.46200
C675        C  0.18635192  0.63657917  0.55456253     0.43100
N676        N  0.10180651  0.55649595  0.55010340     0.02000
N677        N  0.18432559  0.56327172  0.97414582    -0.24900
N678        N  0.16385328  0.44323641  0.55115892    -0.25400
N679        N  0.16542904  0.56102833  0.95508721     0.01600
H680        H  0.21063582  0.62559786  0.98689900     0.07500
H681        H  0.11444119  0.59964011  0.91704593     0.07500
N682        N  0.08042322  0.55399702  0.53344290    -0.25500
N683        N  0.10835054  0.44046628  0.95554865    -0.25100
N684        N  0.18378856  0.56116315  0.53402272     0.02000
C685        C  0.07554849  0.38361290  0.56553365     0.43400
C686        C  0.20435119  0.40488554  0.97250084    -0.06300
N687        N  0.10497805  0.55677959  0.95365375    -0.25100
H688        H  0.12180458  0.40498156  0.91905212     0.07500
N689        N  0.09920750  0.40996696  0.56962477    -0.46300
H690        H  0.22209654  0.40007649  0.98527586     0.07500
C691        C  0.18114937  0.63994872  0.95179468     0.43200
C692        C  0.16380376  0.39732658  0.56469598    -0.05800
Co693      Co  0.18624768  0.50393859  0.00382403     0.73800
N694        N  0.16883157  0.39661320  0.94385821    -0.46000
C695        C  0.07079950  0.60347958  0.57041699     0.43500
N696        N  0.19792479  0.60576596  0.53510908    -0.46000
Co697      Co  0.13690830  0.50009309  0.95473139     0.73900
C698        C  0.10091529  0.59280951  0.93431600    -0.06300
C699        C  0.06385001  0.40564971  0.54026933    -0.05900
N700        N  0.16307124  0.56006206  0.55149064    -0.25400
N701        N  0.06418627  0.42391682  0.95337839    -0.46200
H702        H  0.03810869  0.58273839  0.53796937     0.07500
C703        C  0.19585763  0.61119377  0.97308821    -0.06300
Cl704      Cl  0.13430635  0.50154614  0.50263142    -0.49300
C705        C  0.19088311  0.36879200  0.95335834     0.43200
H706        H  0.14730573  0.61434349  0.58016066     0.07400
N707        N  0.16260363  0.60599608  0.94165091    -0.46000
C708        C  0.42246395  0.39552089  0.57202067     0.43100
N709        N  0.41049082  0.44673557  0.53854797     0.02000
C710        C  0.28939550  0.59319337  0.53731185    -0.05900
H711        H  0.28050441  0.37050156  0.52113507     0.07500
C712        C  0.33159783  0.39217798  0.94280135    -0.06300
Co713      Co  0.35546932  0.49324209  0.55405841     0.74200
N714        N  0.30791850  0.43125282  0.53412225    -0.25400
Co715      Co  0.30593193  0.49187364  0.00502183     0.74100
C716        C  0.30940954  0.35927950  0.95397228     0.43200
N717        N  0.39216974  0.44615519  0.95755617     0.01600
N718        N  0.30967246  0.43439580  0.97446065     0.01700
N719        N  0.32422644  0.59575571  0.56703426    -0.46300
H720        H  0.37943469  0.40151736  0.59113499     0.07500
N721        N  0.32736381  0.43180794  0.55267571     0.02000
N722        N  0.30664655  0.55361610  0.97599628     0.01700
C723        C  0.30466132  0.63119132  0.95749922     0.43300
N724        N  0.41296899  0.44992488  0.97487581    -0.24900
C725        C  0.38483902  0.58159246  0.57719055    -0.05800
N726        N  0.43212700  0.42230696  0.54977678    -0.46000
N727        N  0.29339570  0.59965749  0.97696827    -0.46200
C728        C  0.40961033  0.61262888  0.57433495     0.43100
N729        N  0.32382176  0.55011268  0.55403408     0.02000
N730        N  0.40866029  0.56003060  0.97452752    -0.24900
N731        N  0.38788658  0.44050429  0.55359944    -0.25400
N732        N  0.38653176  0.56036402  0.95883895     0.01600
H733        H  0.45080211  0.58534339  0.96590773     0.07500
H734        H  0.34103475  0.61310410  0.92924232     0.07500
N735        N  0.30430260  0.54860993  0.53562500    -0.25500
N736        N  0.33047481  0.43707274  0.95695434    -0.25100
N737        N  0.40525858  0.56066141  0.53951508     0.02000
C738        C  0.30994082  0.35403983  0.55629503     0.43400
C739        C  0.43503664  0.42412695  0.96399397    -0.06300
N740        N  0.32659977  0.55395499  0.95756535    -0.25100
H741        H  0.34745138  0.38191344  0.92806662     0.07500
N742        N  0.32972285  0.38640322  0.56581709    -0.46300
H743        H  0.45602699  0.42541729  0.97167253     0.07500
C744        C  0.41640473  0.60307800  0.93457596     0.43200
C745        C  0.39301480  0.40712469  0.57374441    -0.05800
Co746      Co  0.41035663  0.50488211  0.50708161     0.73800
N747        N  0.39881758  0.41855015  0.93582230    -0.46000
C748        C  0.30297635  0.62567642  0.55774568     0.43500
N749        N  0.42237856  0.59591015  0.55075788    -0.50200
Co750      Co  0.35866201  0.49897076  0.95754196     0.73900
C751        C  0.32610195  0.60006492  0.94424856    -0.06300
C752        C  0.29554422  0.38412420  0.53529007    -0.05900
N753        N  0.38364754  0.55209573  0.55555713    -0.25400
N754        N  0.29686457  0.38822494  0.97358691    -0.46200
H755        H  0.27306162  0.60359749  0.52373563     0.07500
C756        C  0.42902517  0.58578748  0.96059285    -0.06300
Cl757      Cl  0.35781090  0.49709304  0.50585466    -0.49300
C758        C  0.42534732  0.40243834  0.93797633     0.43200
H759        H  0.37139420  0.57573541  0.59461523     0.07400
N760        N  0.39005386  0.58741257  0.93639661    -0.46000
C761        C  0.19834047  0.13648768  0.55755883     0.43100
N762        N  0.22096389  0.06197683  0.55746509     0.02000
C763        C  0.21215682  0.92089998  0.67901854    -0.05900
H764        H  0.21980388  0.06887310  0.69995230     0.07500
C765        C  0.33010609  0.07835565  0.63040934    -0.06300
Co766      Co  0.20542647  0.00074067  0.60714497     0.74200
N767        N  0.22568103  0.05412347  0.65714912    -0.25400
Co768      Co  0.25858281  0.99867526  0.65519911     0.74100
C769        C  0.32908026  0.10068852  0.65721732     0.43200
N770        N  0.30336325  0.05112503  0.56935645     0.01600
N771        N  0.29212035  0.05341533  0.65060465     0.01700
N772        N  0.18402847  0.91940205  0.64301239    -0.46300
H773        H  0.17283551  0.11212199  0.59477213     0.07500
N774        N  0.20776942  0.05711099  0.63693699     0.02000
N775        N  0.29047466  0.94072356  0.65192533     0.01700
C776        C  0.32686528  0.89258497  0.65971856     0.43300
N777        N  0.28299150  0.05386041  0.55186960    -0.24900
C778        C  0.18725707  0.89932234  0.57842282    -0.05800
N779        N  0.21910831  0.10859799  0.54495509    -0.46000
N780        N  0.30402793  0.91534686  0.67157057    -0.46200
C781        C  0.19603972  0.86833492  0.55486423     0.43100
N782        N  0.20711207  0.94430950  0.63719006     0.02000
N783        N  0.27979158  0.93655634  0.55262912    -0.24900
N784        N  0.20343091  0.05913988  0.57805890    -0.25400
N785        N  0.29976015  0.93437559  0.57063634     0.01600
H786        H  0.26433872  0.87975628  0.52506974     0.07500
H787        H  0.34382138  0.90720648  0.61726727     0.07500
N788        N  0.22475914  0.94541247  0.65763715    -0.25500
N789        N  0.30733742  0.04987048  0.62821777    -0.25100
N790        N  0.21879973  0.94223866  0.55632153     0.02000
C791        C  0.18471793  0.09045555  0.67025682     0.43400
C792        C  0.28578814  0.09879628  0.53789785    -0.06300
N793        N  0.30467753  0.93851058  0.62895142    -0.25100
H794        H  0.34753613  0.07579836  0.61646251     0.07500
N795        N  0.18413232  0.07961691  0.64384896    -0.46300
H796        H  0.27118418  0.11272814  0.52326006     0.07500
C797        C  0.30050713  0.85685407  0.55291599     0.43200
C798        C  0.18791650  0.10282569  0.57913035    -0.05800
Co799      Co  0.25064712  0.99909942  0.55330653     0.73800
N800        N  0.31941532  0.09335378  0.56892128    -0.46000
C801        C  0.18489652  0.90309406  0.66870430     0.43500
N802        N  0.21601657  0.89783099  0.54239866    -0.46000
Co803      Co  0.30376936  0.99340758  0.59899672     0.73900
C804        C  0.32671064  0.90807816  0.63167134    -0.06300
C805        C  0.21274005  0.07421420  0.67935846    -0.05900
N806        N  0.20246729  0.94317249  0.57776677    -0.25400
N807        N  0.30520553  0.08211465  0.66920666    -0.46200
H808        H  0.21948521  0.92118172  0.69968930     0.07500
C809        C  0.27924855  0.88999027  0.53996172    -0.06300
Cl810      Cl  0.25459194  0.99835330  0.60396669    -0.49300
C811        C  0.30990237  0.12592229  0.54941534     0.43200
H812        H  0.17368529  0.88864620  0.59501839     0.07400
N813        N  0.31213870  0.88771450  0.57181472    -0.46000
C814        C  0.18539224  0.11508313  0.84019588     0.43100
N815        N  0.21965817  0.06450215  0.85145630     0.02000
C816        C  0.20855952  0.89443908  0.96192995    -0.05900
H817        H  0.22577507  0.10462323  0.98543329     0.07500
C818        C  0.31303166  0.09664084  0.93552234    -0.06300
Co819      Co  0.19975206  0.00543536  0.90083074     0.74200
N820        N  0.21629707  0.05632827  0.95193844    -0.25400
Co821      Co  0.24596087  0.99659233  0.95256795     0.74100
C822        C  0.29938541  0.13010849  0.95518311     0.43200
N823        N  0.30122239  0.05668432  0.87583060     0.01600
N824        N  0.27757643  0.05549244  0.95293621     0.01700
N825        N  0.18061455  0.90173202  0.92585966    -0.46300
H826        H  0.16241555  0.09892548  0.87973881     0.07500
N827        N  0.19942053  0.06116334  0.93137967     0.02000
N828        N  0.27606036  0.93583961  0.95143210     0.01700
C829        C  0.29754598  0.86120400  0.95517633     0.43300
N830        N  0.28489686  0.05879744  0.85440186    -0.24900
C831        C  0.17781032  0.92742088  0.86307347    -0.05800
N832        N  0.20937335  0.09250978  0.83081967    -0.46000
N833        N  0.27572212  0.89014439  0.96461279    -0.46200
C834        C  0.18082131  0.91880613  0.83439847     0.43100
N835        N  0.19672111  0.94368869  0.92848122     0.02000
N836        N  0.28434306  0.94966338  0.85145458    -0.24900
N837        N  0.20227032  0.06449472  0.87235532    -0.25400
N838        N  0.29962043  0.94418904  0.87352064     0.01600
H839        H  0.29400767  0.93153528  0.80948094     0.07500
H840        H  0.32746248  0.88188997  0.92036089     0.07500
N841        N  0.21401366  0.93994679  0.94891769    -0.25500
N842        N  0.29780274  0.05279843  0.93483285    -0.25100
N843        N  0.21831895  0.95393617  0.84920674     0.02000
C844        C  0.19505486  0.13521938  0.95262777     0.43400
C845        C  0.29887424  0.08359800  0.83435893    -0.06300
N846        N  0.29601497  0.93747040  0.93299936    -0.25100
H847        H  0.32938905  0.10698959  0.92134972     0.07500
N848        N  0.18682473  0.10751128  0.93076199    -0.46300
H849        H  0.29282555  0.08333120  0.81329875     0.07500
C850        C  0.32454552  0.90580798  0.84305465     0.43200
C851        C  0.18121998  0.09685989  0.86759271    -0.05800
Co852      Co  0.25170905  0.00666160  0.85101061     0.73800
N853        N  0.32533426  0.07961573  0.87161375    -0.46000
C854        C  0.18656014  0.86823419  0.94631340     0.43500
N855        N  0.20650564  0.93586658  0.82684863    -0.46000
Co856      Co  0.29860657  0.99755361  0.90464617     0.73900
C857        C  0.31085572  0.89285663  0.93415410    -0.06300
C858        C  0.21387977  0.09918857  0.96734967    -0.05900
N859        N  0.20072710  0.95230307  0.86993850    -0.25400
N860        N  0.27715998  0.10238932  0.96486761    -0.46200
H861        H  0.21985951  0.88016150  0.97903899     0.07500
C862        C  0.29885217  0.92722148  0.83075192    -0.06300
Cl863      Cl  0.24901739  0.00136282  0.90214001    -0.49300
C864        C  0.32607539  0.09675726  0.84596585     0.43200
H865        H  0.15899538  0.92654039  0.87525949     0.07400
N866        N  0.32296503  0.91840359  0.86926289    -0.46000
C867        C  0.05144861  0.36273149  0.67732062     0.43100
N868        N  0.03257391  0.36921129  0.71753123     0.02000
C869        C  0.04853724  0.14669879  0.79905923    -0.05900
H870        H  0.04254537  0.09342214  0.71998013     0.07500
C871        C  0.43140636  0.21626846  0.70942730    -0.06300
Co872      Co  0.05220012  0.27826313  0.75110513     0.74200
N873        N  0.03540512  0.17631892  0.72655460    -0.25400
Co874      Co  0.50217308  0.18024506  0.75491430     0.74100
C875        C  0.43529752  0.16373650  0.69944021     0.43200
N876        N  0.45299913  0.33973397  0.72336809     0.01600
N877        N  0.46925387  0.18274827  0.72601378     0.01700
N878        N  0.07509583  0.21866007  0.79616606    -0.46300
H879        H  0.07750736  0.29252763  0.69123951     0.07500
N880        N  0.05245875  0.21671862  0.72408075     0.02000
N881        N  0.46939818  0.18538634  0.78376176     0.01700
C882        C  0.43207321  0.16647699  0.80640271     0.43300
N883        N  0.47171765  0.37703019  0.72254763    -0.24900
C884        C  0.06749694  0.33966669  0.80224498    -0.05800
N885        N  0.03160184  0.38830672  0.69227384    -0.46000
N886        N  0.45621530  0.14602987  0.79624375    -0.46200
C887        C  0.05582738  0.38375552  0.81675657     0.43100
N888        N  0.05235125  0.22422884  0.78199946     0.02000
N889        N  0.47492328  0.37862819  0.78279842    -0.24900
N890        N  0.05097550  0.33107983  0.71944822    -0.25400
N891        N  0.45599115  0.34156357  0.78455421     0.01600
H892        H  0.48986410  0.43421625  0.81191831     0.07500
H893        H  0.41414345  0.24819381  0.80017293     0.07500
N894        N  0.03560113  0.18316390  0.78328356    -0.25500
N895        N  0.45254277  0.22431161  0.72606206    -0.25100
N896        N  0.03540428  0.37697462  0.77849224     0.02000
C897        C  0.07666997  0.15276156  0.70781146     0.43400
C898        C  0.46804362  0.40583499  0.70011644    -0.06300
N899        N  0.45393608  0.22827807  0.78403044    -0.25100
H900        H  0.41334138  0.24139675  0.70754692     0.07500
N901        N  0.07647146  0.20420197  0.71280762    -0.46300
H902        H  0.48122861  0.43786316  0.69374078     0.07500
C903        C  0.45535232  0.37674940  0.82462284     0.43200
C904        C  0.06386945  0.32488249  0.69572582    -0.05800
Co905      Co  0.50368887  0.37777961  0.75015641     0.73800
N906        N  0.43724348  0.33931316  0.70141247    -0.46000
C907        C  0.07492140  0.17161966  0.80796984     0.43500
N908        N  0.03617854  0.40529527  0.80091053    -0.46000
Co909      Co  0.45367014  0.28407630  0.75442407     0.73900
C910        C  0.43153388  0.22118774  0.79926790    -0.06300
C911        C  0.04901553  0.13360796  0.71673438    -0.05900
N912        N  0.05315047  0.33773352  0.77910078    -0.25400
N913        N  0.45879196  0.14405920  0.71105699    -0.46200
H914        H  0.04200874  0.10635575  0.80154432     0.07500
C915        C  0.47526779  0.40411842  0.80668295    -0.06300
Cl916      Cl  0.50290825  0.27933388  0.75249117    -0.49300
C917        C  0.44541971  0.38025518  0.68572959     0.43200
H918        H  0.08255566  0.31137259  0.80925425     0.07400
N919        N  0.44425276  0.33865280  0.80907183    -0.46000
C920        C  0.07422217  0.84457245  0.69955219     0.43100
N921        N  0.03786662  0.82597427  0.72369384     0.02000
C922        C  0.02619207  0.60920912  0.80786091    -0.05900
H923        H  0.01415303  0.57749087  0.69409976     0.07500
C924        C  0.43359277  0.68770732  0.70236238    -0.06300
Co925      Co  0.05085254  0.72479577  0.75321423     0.74200
N926        N  0.02818347  0.63342580  0.72321611    -0.25400
Co927      Co  0.49723436  0.63618199  0.75276570     0.74100
C928        C  0.44397399  0.64734221  0.68438807     0.43200
N929        N  0.45384859  0.79783315  0.72618337     0.01600
N930        N  0.46705625  0.64546255  0.72190947     0.01700
N931        N  0.05890473  0.67179834  0.80869336    -0.46300
H932        H  0.09391075  0.76498359  0.70824670     0.07500
N933        N  0.04868950  0.66732083  0.72320246     0.02000
N934        N  0.46650016  0.64122014  0.78308903     0.01700
C935        C  0.44598056  0.63626046  0.82185401     0.43300
N936        N  0.47273660  0.83529918  0.72499548    -0.24900
C937        C  0.07806397  0.79262209  0.79270042    -0.05800
N938        N  0.05039766  0.86502907  0.71025588    -0.46000
N939        N  0.46468484  0.61239427  0.80549199    -0.46200
C940        C  0.07845841  0.84853475  0.79694887     0.43100
N941        N  0.04702960  0.66914353  0.78445964     0.02000
N942        N  0.47309944  0.83533121  0.78309324    -0.24900
N943        N  0.05347466  0.78297508  0.72381215    -0.25400
N944        N  0.45507297  0.79627965  0.78402084     0.01600
H945        H  0.47131535  0.91266966  0.80138249     0.07500
H946        H  0.42161021  0.71199039  0.81469626     0.07500
N947        N  0.02709294  0.63387329  0.78371453    -0.25500
N948        N  0.44936914  0.68471694  0.72443570    -0.25100
N949        N  0.03861529  0.82697059  0.78068911     0.02000
C950        C  0.05350934  0.62652776  0.68497384     0.43400
C951        C  0.46323452  0.87260836  0.70765383    -0.06300
N952        N  0.45013299  0.68256247  0.78413229    -0.25100
H953        H  0.41830906  0.71766946  0.69818138     0.07500
N954        N  0.06390451  0.66527531  0.70061426    -0.46300
H955        H  0.47269040  0.91046589  0.70395307     0.07500
C956        C  0.43656182  0.85211765  0.81132315     0.43200
C957        C  0.07598988  0.79064486  0.70853596    -0.05800
Co958      Co  0.00554866  0.83233534  0.75311818     0.73800
N959        N  0.43231125  0.80671780  0.71080316    -0.46000
C960        C  0.04680481  0.63517360  0.82493255     0.43500
N961        N  0.05331811  0.86764931  0.78928260    -0.46000
Co962      Co  0.45202806  0.73998398  0.75482269     0.73900
C963        C  0.43592563  0.68223647  0.80764541    -0.06300
C964        C  0.02962974  0.60549136  0.70030778    -0.05900
N965        N  0.05368297  0.78342078  0.78128496    -0.25400
N966        N  0.46506595  0.62260669  0.69767812    -0.46200
H967        H  0.01074870  0.58092815  0.81381541     0.07500
C968        C  0.46281531  0.87361295  0.79954792    -0.06300
Cl969      Cl  0.50149377  0.73363644  0.75340174    -0.49300
C970        C  0.43642893  0.85196041  0.69792046     0.43200
H971        H  0.09545276  0.76561104  0.79218149     0.07400
N972        N  0.43377195  0.80491420  0.80016312    -0.46000
C973        C  0.35255194  0.89151155  0.83190020    -0.04700
C974        C  0.36854961  0.92732988  0.81611188    -0.01800
C975        C  0.39777782  0.91991160  0.81286645     0.03200
C976        C  0.41093671  0.87518006  0.82392580    -0.04700
C977        C  0.39518724  0.84151089  0.84098546    -0.01800
C978        C  0.36633619  0.84884841  0.84444222     0.03200
C979        C  0.35519482  0.97190199  0.80328811     0.37800
C980        C  0.40887071  0.79886110  0.85534449     0.37800
C981        C  0.35071800  0.81193154  0.86118639     0.36200
C982        C  0.41463887  0.95997531  0.80000431     0.36200
N983        N  0.33846237  0.78236077  0.87455440    -0.38600
N984        N  0.42843753  0.99279390  0.79080926    -0.38600
N985        N  0.41949077  0.76500779  0.86711011    -0.38000
N986        N  0.34478622  0.00722938  0.79251928    -0.38000
C987        C  0.10452583  0.87940942  0.79886477    -0.04700
C988        C  0.10534914  0.92363957  0.81566759    -0.01800
C989        C  0.13118834  0.94281561  0.82419204     0.03200
C990        C  0.15616153  0.91618231  0.81670839    -0.04700
C991        C  0.15552076  0.87951927  0.79569972    -0.01800
C992        C  0.12967511  0.86171764  0.78629684     0.03200
C993        C  0.07976163  0.94739784  0.82562894     0.37800
C994        C  0.18130483  0.85762096  0.78509774     0.37800
C995        C  0.12950154  0.82543840  0.76376744     0.36200
C996        C  0.13157150  0.98820804  0.84180999     0.36200
N997        N  0.13038366  0.79659919  0.74573195    -0.38600
N998        N  0.13113628  0.02387679  0.85622624    -0.38600
N999        N  0.20186224  0.84025945  0.77658445    -0.38000
N1000       N  0.05947980  0.96675489  0.83359151    -0.38000
C1001       C  0.40576745  0.13747323  0.81159763    -0.04700
C1002       C  0.40427199  0.10027339  0.83260943    -0.01800
C1003       C  0.37812689  0.08250974  0.84188311     0.03200
C1004       C  0.35314427  0.10553319  0.83174225    -0.04700
C1005       C  0.35470955  0.13877744  0.80894330    -0.01800
C1006       C  0.38083842  0.15312114  0.79826984     0.03200
C1007       C  0.42946612  0.08271348  0.84594453     0.37800
C1008       C  0.32965058  0.16072185  0.79711256     0.37800
C1009       C  0.38160904  0.18479940  0.77368338     0.36200
C1010       C  0.37740813  0.03985454  0.86153317     0.36200
N1011       N  0.38181970  0.21019036  0.75415624    -0.38600
N1012       N  0.37716085  0.00554157  0.87701429    -0.38600
N1013       N  0.30987628  0.17858775  0.78746540    -0.38000
N1014       N  0.44938072  0.06871225  0.85688175    -0.38000
C1015       C  0.10253395  0.15150057  0.81720854    -0.04700
C1016       C  0.11814213  0.18509846  0.83412171    -0.01800
C1017       C  0.14710833  0.17861578  0.83663408     0.03200
C1018       C  0.16078997  0.13525165  0.82501405    -0.04700
C1019       C  0.14582493  0.10283360  0.80714325    -0.01800
C1020       C  0.11680519  0.11105164  0.80311753     0.03200
C1021       C  0.10438733  0.22694585  0.84907766     0.37800
C1022       C  0.16046683  0.06149261  0.79293713     0.37800
C1023       C  0.10181572  0.07915597  0.78399272     0.36200
C1024       C  0.16348300  0.21669087  0.85127132     0.36200
N1025       N  0.08939394  0.05436500  0.76872634    -0.38600
N1026       N  0.17741001  0.24658574  0.86229509    -0.38600
N1027       N  0.17265892  0.02890057  0.78166920    -0.38000
N1028       N  0.09355737  0.26017336  0.86117480    -0.38000
C1029       C  0.41226117  0.87470143  0.68389869    -0.04700
C1030       C  0.39476431  0.90998316  0.69798576    -0.01800
C1031       C  0.36590755  0.91222270  0.69247447     0.03200
C1032       C  0.35451099  0.88057497  0.67192861    -0.04700
C1033       C  0.37238861  0.84573815  0.65760749    -0.01800
C1034       C  0.40097584  0.84358010  0.66320903     0.03200
C1035       C  0.40644705  0.94227037  0.71896599     0.37800
C1036       C  0.36135580  0.81228177  0.63658694     0.37800
C1037       C  0.41878782  0.80672688  0.64868982     0.36200
C1038       C  0.34791723  0.94514016  0.70879902     0.36200
N1039       N  0.43307634  0.77734775  0.63732870    -0.38600
N1040       N  0.33331166  0.97004673  0.72237226    -0.38600
N1041       N  0.35229510  0.78719446  0.61933532    -0.38000
N1042       N  0.41624465  0.96817764  0.73545850    -0.38000
C1043       C  0.15791391  0.88609618  0.68112660    -0.04700
C1044       C  0.14401801  0.91472629  0.70176275    -0.01800
C1045       C  0.11530792  0.90514328  0.70732435     0.03200
C1046       C  0.09974170  0.87238417  0.69005002    -0.04700
C1047       C  0.11299949  0.85094338  0.66725121    -0.01800
C1048       C  0.14208720  0.85179044  0.66507964     0.03200
C1049       C  0.15865701  0.95546514  0.71601514     0.37800
C1050       C  0.09623844  0.83075295  0.64541911     0.37800
C1051       C  0.15634379  0.81693043  0.64651769     0.36200
C1052       C  0.10161431  0.92913413  0.73032544     0.36200
N1053       N  0.16939982  0.78943354  0.63284323    -0.38600
N1054       N  0.09014038  0.94777216  0.74860844    -0.38600
N1055       N  0.08229125  0.81641977  0.62796805    -0.38000
N1056       N  0.17049158  0.98871939  0.72679898    -0.38000
C1057       C  0.35540284  0.12024370  0.67000680    -0.04700
C1058       C  0.36315815  0.10636763  0.69667272    -0.01800
C1059       C  0.39118569  0.11217801  0.70508436     0.03200
C1060       C  0.41133414  0.13515787  0.68765340    -0.04700
C1061       C  0.40342048  0.14969509  0.66128362    -0.01800
C1062       C  0.37556943  0.14497160  0.65301081     0.03200
C1063       C  0.34197686  0.09132088  0.71621249     0.37800
C1064       C  0.42420622  0.16947460  0.64238808     0.37800
C1065       C  0.36736835  0.16909985  0.62751086     0.36200
C1066       C  0.39943038  0.09449858  0.73174108     0.36200
N1067       N  0.36075612  0.18837383  0.60725135    -0.38600
N1068       N  0.40616457  0.07967750  0.75289734    -0.38600
N1069       N  0.44070451  0.18395511  0.62688431    -0.38000
N1070       N  0.32484712  0.08130511  0.73203722    -0.38000
C1071       C  0.15783088  0.09458641  0.68578342    -0.04700
C1072       C  0.15510631  0.12951882  0.70757075    -0.01800
C1073       C  0.12834023  0.14431873  0.71699202     0.03200
C1074       C  0.10390075  0.12451987  0.70442989    -0.04700
C1075       C  0.10676694  0.08338062  0.68574151    -0.01800
C1076       C  0.13354044  0.06827079  0.67647098     0.03200
C1077       C  0.17977860  0.15242046  0.71933833     0.37800
C1078       C  0.08220236  0.05859786  0.67477798     0.37800
C1079       C  0.13564254  0.02637273  0.65671937     0.36200
C1080       C  0.12629002  0.18094005  0.73935620     0.36200
N1081       N  0.13685346  0.99332874  0.64073368    -0.38600
N1082       N  0.12511054  0.21039092  0.75712077    -0.38600
N1083       N  0.06274628  0.03839368  0.66599359    -0.38000
N1084       N  0.19952439  0.17037622  0.72877753    -0.38000
C1085       C  0.30306072  0.68506870  0.55788354    -0.04700
C1086       C  0.28054265  0.71350443  0.56925884    -0.01800
C1087       C  0.27974933  0.76930460  0.56779529     0.03200
C1088       C  0.30131423  0.79769529  0.55463788    -0.04700
C1089       C  0.32488039  0.76962419  0.54537589    -0.01800
C1090       C  0.32563490  0.71386702  0.54659390     0.03200
C1091       C  0.25886529  0.68537088  0.58380173     0.37800
C1092       C  0.34895986  0.79855989  0.53578477     0.37800
C1093       C  0.34995215  0.68641359  0.53644764     0.36200
C1094       C  0.25799558  0.79778708  0.58199016     0.36200
N1095       N  0.36960320  0.66500633  0.52845322    -0.38600
N1096       N  0.24101406  0.82061089  0.59385621    -0.38600
N1097       N  0.36826389  0.82220717  0.52878611    -0.38000
N1098       N  0.24168892  0.66295235  0.59563539    -0.38000
C1099       C  0.31203216  0.29536057  0.55728478    -0.04700
C1100       C  0.29192631  0.26551058  0.57145224    -0.01800
C1101       C  0.29145641  0.21020898  0.56893097     0.03200
C1102       C  0.31154554  0.18412927  0.55279192    -0.04700
C1103       C  0.33419512  0.21316671  0.54239195    -0.01800
C1104       C  0.33417523  0.26871265  0.54409660     0.03200
C1105       C  0.27390428  0.29140833  0.59082792     0.37800
C1106       C  0.35842052  0.18564269  0.53208142     0.37800
C1107       C  0.35755226  0.29831520  0.53349052     0.36200
C1108       C  0.27205691  0.17887273  0.58468822     0.36200
N1109       N  0.37640383  0.32220254  0.02557961    -0.38600
N1110       N  0.25786695  0.15088333  0.59705549    -0.38600
N1111       N  0.37814307  0.16349805  0.52479133    -0.38000
N1112       N  0.26063452  0.31261550  0.60710368    -0.38000
C1113       C  0.30307772  0.69030744  0.95728115    -0.04700
C1114       C  0.32670178  0.72172437  0.96301649    -0.01800
C1115       C  0.32476384  0.77731415  0.96288079     0.03200
C1116       C  0.29946766  0.80240977  0.95652273    -0.04700
C1117       C  0.27744139  0.77135821  0.94691164    -0.01800
C1118       C  0.27880306  0.71579387  0.94810851     0.03200
C1119       C  0.35372359  0.69786142  0.96692489     0.37800
C1120       C  0.25631307  0.79723461  0.93111510     0.37800
C1121       C  0.25692795  0.68440021  0.93658048     0.36200
C1122       C  0.34952416  0.80881901  0.96657803     0.36200
N1123       N  0.24043701  0.65765566  0.92686327    -0.38600
N1124       N  0.36938674  0.83396388  0.96875807    -0.38600
N1125       N  0.24153993  0.82115780  0.91744507    -0.38000
N1126       N  0.37586916  0.68072453  0.96938630    -0.38000
C1127       C  0.30207235  0.18889416  0.95447904    -0.04700
C1128       C  0.32780784  0.21286010  0.96041519    -0.01800
C1129       C  0.33057927  0.26826084  0.95952588     0.03200
C1130       C  0.30763264  0.30047101  0.95252266    -0.04700
C1131       C  0.28348451  0.27609586  0.94258310    -0.01800
C1132       C  0.28111198  0.22055730  0.94275204     0.03200
C1133       C  0.35219639  0.18024447  0.96449080     0.37800
C1134       C  0.26271004  0.30805924  0.92919024     0.37800
C1135       C  0.25954819  0.19569717  0.92705190     0.36200
C1136       C  0.35756908  0.29170953  0.96395700     0.36200
N1137       N  0.24302645  0.17557754  0.91375524    -0.38600
N1138       N  0.37920847  0.31062114  0.96672072    -0.38600
N1139       N  0.24659026  0.33389225  0.91799899    -0.38000
N1140       N  0.37173394  0.15394686  0.96668555    -0.38000
C1141       C  0.44172529  0.62406651  0.85096312    -0.04700
C1142       C  0.42315422  0.58411229  0.85818236    -0.01800
C1143       C  0.41736122  0.57365515  0.88562658     0.03200
C1144       C  0.42885952  0.60557289  0.90652993    -0.04700
C1145       C  0.44891291  0.64355893  0.89921814    -0.01800
C1146       C  0.45530808  0.65287095  0.87143548     0.03200
C1147       C  0.40961743  0.55382287  0.83713805     0.37800
C1148       C  0.46231548  0.67384740  0.92012873     0.37800
C1149       C  0.47498521  0.69343622  0.86375897     0.36200
C1150       C  0.39913303  0.52971123  0.89171343     0.36200
N1151       N  0.49037644  0.72618695  0.85738201    -0.38600
N1152       N  0.38412625  0.49510795  0.89581259    -0.38600
N1153       N  0.47314550  0.69769720  0.93690689    -0.38000
N1154       N  0.39897425  0.52934669  0.82048659    -0.38000
C1155       C  0.42077617  0.63925450  0.59929940    -0.04700
C1156       C  0.44918806  0.64058256  0.60620609    -0.01800
C1157       C  0.45691148  0.64537269  0.63394420     0.03200
C1158       C  0.43650553  0.64411633  0.65488470    -0.04700
C1159       C  0.40837470  0.64994954  0.64736476    -0.01800
C1160       C  0.40115973  0.65293163  0.61983167     0.03200
C1161       C  0.47010856  0.64006937  0.58493104     0.37800
C1162       C  0.38642793  0.65231855  0.66777341     0.37800
C1163       C  0.37298867  0.66819718  0.61273103     0.36200
C1164       C  0.48481041  0.66038152  0.64078055     0.36200
N1165       N  0.35033738  0.67869213  0.60704644    -0.38600
N1166       N  0.00632589  0.67628852  0.64682724    -0.38600
N1167       N  0.36880109  0.65437650  0.68388666    -0.38000
N1168       N  0.98672089  0.64043230  0.56779318    -0.38000
C1169       C  0.44143382  0.39131711  0.91247422    -0.04700
C1170       C  0.43864434  0.34237171  0.89974986    -0.01800
C1171       C  0.44495872  0.33650203  0.87173538     0.03200
C1172       C  0.45220934  0.38072662  0.85532795    -0.04700
C1173       C  0.45702484  0.42882693  0.86893593    -0.01800
C1174       C  0.45304848  0.43304712  0.89738263     0.03200
C1175       C  0.42992951  0.29736965  0.91583297     0.37800
C1176       C  0.46448877  0.47533379  0.85373956     0.37800
C1177       C  0.46099707  0.48049157  0.91124177     0.36200
C1178       C  0.44564772  0.28385616  0.86101405     0.36200
N1179       N  0.46809751  0.51784903  0.92240734    -0.38600
N1180       N  0.44684209  0.24037109  0.85452421    -0.38600
N1181       N  0.47030887  0.51246710  0.84140145    -0.38000
N1182       N  0.42338014  0.26099791  0.92848865    -0.38000
C1183       C  0.43697175  0.39251115  0.59857430    -0.04700
C1184       C  0.44358038  0.34383691  0.61048357    -0.01800
C1185       C  0.44768645  0.34025135  0.63888110     0.03200
C1186       C  0.44121317  0.38355296  0.65584711    -0.04700
C1187       C  0.43539807  0.43250719  0.64365481    -0.01800
C1188       C  0.43606468  0.43721063  0.61519640     0.03200
C1189       C  0.44757721  0.29860688  0.59324300     0.37800
C1190       C  0.43114360  0.47880022  0.66024059     0.37800
C1191       C  0.44014070  0.48761154  0.60267014     0.36200
C1192       C  0.46159829  0.29480924  0.65022832     0.36200
N1193       N  0.44579055  0.52660210  0.59208712    -0.38600
N1194       N  0.47374104  0.25994330  0.65957040    -0.38600
N1195       N  0.42786971  0.51563702  0.67355042    -0.38000
N1196       N  0.45097563  0.26289566  0.57917086    -0.38000
C1197       C  0.17985668  0.81020691  0.94625210    -0.04700
C1198       C  0.17055209  0.78471732  0.97019801    -0.01800
C1199       C  0.16946139  0.72903402  0.97160470     0.03200
C1200       C  0.17823281  0.69836587  0.94931109    -0.04700
C1201       C  0.18231295  0.72357284  0.92415952    -0.01800
C1202       C  0.18285647  0.77910505  0.92248548     0.03200
C1203       C  0.15879859  0.81589327  0.49193767     0.37800
C1204       C  0.18557430  0.69223053  0.89982526     0.37800
C1205       C  0.18710248  0.80273022  0.89605882     0.36200
C1206       C  0.15579597  0.70312233  0.99426841     0.36200
N1207       N  0.19104519  0.81830286  0.87431168    -0.38600
N1208       N  0.14394041  0.68150719  0.51150386    -0.38600
N1209       N  0.18795526  0.66733448  0.88036974    -0.38000
N1210       N  0.14847657  0.84088203  0.50880171    -0.38000
C1211       C  0.19334395  0.19488322  0.95381234    -0.04700
C1212       C  0.17428641  0.22316352  0.93734683    -0.01800
C1213       C  0.17525684  0.27892352  0.93539180     0.03200
C1214       C  0.19283989  0.30888629  0.95245212    -0.04700
C1215       C  0.21059651  0.28021452  0.97007057    -0.01800
C1216       C  0.21153353  0.22476518  0.97003131     0.03200
C1217       C  0.15237155  0.19551062  0.92330480     0.37800
C1218       C  0.22776966  0.30559948  0.98990820     0.37800
C1219       C  0.23183003  0.20045985  0.98757596     0.36200
C1220       C  0.15831472  0.30453752  0.91504113     0.36200
N1221       N  0.24891162  0.18627918  0.00222983    -0.38600
N1222       N  0.14499657  0.32365392  0.89821003    -0.38600
N1223       N  0.24165838  0.32097867  0.00708886    -0.38000
N1224       N  0.13452703  0.17389975  0.91243861    -0.38000
C1225       C  0.19185103  0.80950318  0.55175971    -0.04700
C1226       C  0.21000826  0.77766837  0.53615609    -0.01800
C1227       C  0.20907718  0.72214110  0.53798157     0.03200
C1228       C  0.18970985  0.69606924  0.55529482    -0.04700
C1229       C  0.17160291  0.72835809  0.57089558    -0.01800
C1230       C  0.17075523  0.78343406  0.56681553     0.03200
C1231       C  0.22924486  0.79969773  0.51657631     0.37800
C1232       C  0.15574440  0.70678771  0.59332048     0.37800
C1233       C  0.14635527  0.81228021  0.57582790     0.36200
C1234       C  0.22949200  0.69366231  0.52207402     0.36200
N1235       N  0.12683584  0.83579744  0.58248533    -0.38600
N1236       N  0.24679982  0.67664455  0.50825605    -0.38600
N1237       N  0.14388750  0.69031514  0.61202252    -0.38000
N1238       N  0.24534545  0.80974253  0.49982400    -0.38000
C1239       C  0.19398438  0.19539787  0.55647115    -0.04700
C1240       C  0.19891122  0.22730332  0.57956815    -0.01800
C1241       C  0.19593943  0.28263578  0.57808334     0.03200
C1242       C  0.18765212  0.30716722  0.55381252    -0.04700
C1243       C  0.17722736  0.27499905  0.53295560    -0.01800
C1244       C  0.18050863  0.21943662  0.53420549     0.03200
C1245       C  0.20438925  0.20389886  0.60581404     0.37800
C1246       C  0.15973218  0.29863479  0.51240905     0.37800
C1247       C  0.16627437  0.18663171  0.51490120     0.36200
C1248       C  0.19893256  0.31406029  0.60234284     0.36200
N1249       N  0.15408855  0.16055573  0.00000113    -0.38600
N1250       N  0.20090742  0.33873829  0.62187203    -0.38600
N1251       N  0.14513587  0.31778026  0.99662002    -0.38000
N1252       N  0.20817585  0.18674132  0.62724410    -0.38000
C1253       C  0.05661872  0.62416928  0.91307453    -0.04700
C1254       C  0.06130971  0.67216855  0.89954889    -0.01800
C1255       C  0.05671693  0.67698635  0.87124955     0.03200
C1256       C  0.04888819  0.63258545  0.85564261    -0.04700
C1257       C  0.04226378  0.58564838  0.86996274    -0.01800
C1258       C  0.04477523  0.58257665  0.89850024     0.03200
C1259       C  0.07136483  0.71653810  0.91495235     0.37800
C1260       C  0.03474594  0.53881517  0.85543552     0.37800
C1261       C  0.03615588  0.53563041  0.91290508     0.36200
C1262       C  0.05951929  0.72833734  0.85888798     0.36200
N1263       N  0.02880062  0.49878056  0.92468575    -0.38600
N1264       N  0.06146220  0.77034445  0.85008984    -0.38600
N1265       N  0.52882776  0.50149665  0.84360085    -0.38000
N1266       N  0.07925607  0.75188133  0.92734548    -0.38000
C1267       C  0.05759644  0.61803434  0.59677579    -0.04700
C1268       C  0.06966327  0.66061192  0.61050345    -0.01800
C1269       C  0.07137254  0.66080260  0.63916203     0.03200
C1270       C  0.05829893  0.62101486  0.65476580    -0.04700
C1271       C  0.04689992  0.57791162  0.64088094    -0.01800
C1272       C  0.04479615  0.57817260  0.61230750     0.03200
C1273       C  0.08159301  0.70294643  0.59453541     0.37800
C1274       C  0.04273845  0.52969572  0.65578442     0.37800
C1275       C  0.03001378  0.53682164  0.59875743     0.36200
C1276       C  0.09065919  0.69593152  0.65200331     0.36200
N1277       N  0.01744139  0.50509450  0.58761605    -0.38600
N1278       N  0.10737459  0.72132105  0.66231521    -0.38600
N1279       N  0.04126012  0.49228647  0.66904047    -0.38000
N1280       N  0.09067195  0.73616830  0.58108906    -0.38000
C1281       C  0.06598357  0.40481705  0.90277278    -0.04700
C1282       C  0.04658044  0.36787878  0.89334470    -0.01800
C1283       C  0.04253068  0.36156631  0.86510039     0.03200
C1284       C  0.05779183  0.39237951  0.84624457    -0.04700
C1285       C  0.07594691  0.43089934  0.85542540    -0.01800
C1286       C  0.07944199  0.43848163  0.88334838     0.03200
C1287       C  0.03198443  0.33456356  0.91261522     0.37800
C1288       C  0.09142193  0.46257481  0.83581221     0.37800
C1289       C  0.09875367  0.47908389  0.89113724     0.36200
C1290       C  0.02397277  0.32134343  0.85530993     0.36200
N1291       N  0.11563895  0.50982379  0.89581462    -0.38600
N1292       N  0.00953882  0.28883810  0.84721831    -0.38600
N1293       N  0.10357628  0.48774720  0.82013439    -0.38000
N1294       N  0.02036239  0.30811381  0.92811060    -0.38000
C1295       C  0.05504879  0.36146172  0.64673991    -0.04700
C1296       C  0.07928740  0.33789683  0.63506466    -0.01800
C1297       C  0.08166590  0.33147309  0.60679910     0.03200
C1298       C  0.06280426  0.35651690  0.58934306    -0.04700
C1299       C  0.03757050  0.37483262  0.60019870    -0.01800
C1300       C  0.03415491  0.37959637  0.62866561     0.03200
C1301       C  0.10386526  0.32688709  0.65103351     0.37800
C1302       C  0.01535243  0.38940427  0.58196806     0.37800
C1303       C  0.01145433  0.41134666  0.63824880     0.36200
C1304       C  0.10506085  0.30280553  0.59518307     0.36200
N1305       N  0.49442005  0.44102664  0.64444437    -0.38600
N1306       N  0.12345210  0.27947347  0.58582902    -0.38600
N1307       N  0.49752704  0.40042221  0.56735675    -0.38000
N1308       N  0.12379762  0.31839720  0.66334268    -0.38000
C1309       C  0.68566071  0.36598635  0.05219293     0.43100
N1310       N  0.68422042  0.44283950  0.03310077     0.02000
C1311       C  0.55935738  0.58186347  0.04499187    -0.05900
H1312       H  0.54397310  0.39812820  0.03099352     0.07500
C1313       C  0.60617369  0.40809180  0.43478148    -0.06300
Co1314     Co  0.63309349  0.50102225  0.05093402     0.74200
N1315       N  0.58250379  0.44190431  0.03165697    -0.25400
Co1316     Co  0.58158676  0.49934601  0.00078282     0.74100
C1317       C  0.57668730  0.40131253  0.43127804     0.43200
N1318       N  0.66819135  0.44288185  0.45618182     0.01600
N1319       N  0.58432746  0.44469316  0.46829738     0.01700
N1320       N  0.59683131  0.58517171  0.07168761    -0.46300
H1321       H  0.64853634  0.38494537  0.07953652     0.07500
N1322       N  0.60281960  0.44328494  0.04953439     0.02000
N1323       N  0.58305523  0.55648383  0.46996278     0.01700
C1324       C  0.57275306  0.61191108  0.43806088     0.43300
N1325       N  0.68798878  0.44719344  0.47399577    -0.24900
C1326       C  0.66322534  0.60477546  0.06563872    -0.05800
N1327       N  0.69720070  0.39657353  0.03251677    -0.46000
N1328       N  0.56265536  0.58682562  0.46052237    -0.46200
C1329       C  0.68635120  0.63658044  0.05456491     0.43100
N1330       N  0.60180499  0.55650033  0.05010419     0.02000
N1331       N  0.68432558  0.56326910  0.47414523    -0.24900
N1332       N  0.66385099  0.44323863  0.05115904    -0.25400
N1333       N  0.66542871  0.56102544  0.45508694     0.01600
H1334       H  0.71063628  0.62559506  0.48689745     0.07500
H1335       H  0.61444088  0.59963294  0.41704526     0.07500
N1336       N  0.58042204  0.55400215  0.03344327    -0.25500
N1337       N  0.60835094  0.44046065  0.45554895    -0.25100
N1338       N  0.68378727  0.56116550  0.03402408     0.02000
C1339       C  0.57554642  0.38361650  0.06553345     0.43400
C1340       C  0.70435232  0.40488359  0.47250042    -0.06300
N1341       N  0.60497793  0.55677389  0.45365357    -0.25100
H1342       H  0.62180461  0.40497529  0.41905251     0.07500
N1343       N  0.59920522  0.40997083  0.06962491    -0.46300
H1344       H  0.72209802  0.40007479  0.48527517     0.07500
C1345       C  0.68114922  0.63994591  0.45179363     0.43200
C1346       C  0.66380087  0.39732775  0.06469520    -0.05800
Co1347     Co  0.68624842  0.50393630  0.50382371     0.73800
N1348       N  0.66883250  0.39661063  0.44385806    -0.46000
C1349       C  0.57079800  0.60348563  0.07041688     0.43500
N1350       N  0.69792377  0.60576791  0.03511100    -0.46000
Co1351     Co  0.63690850  0.50008875  0.45473137     0.73900
C1352       C  0.60091501  0.59280278  0.43431543    -0.06300
C1353       C  0.56384801  0.40565401  0.04026916    -0.05900
N1354       N  0.66307004  0.56006401  0.05149205    -0.25400
N1355       N  0.56418654  0.42391142  0.45337887    -0.46200
H1356       H  0.53810786  0.58274570  0.03796852     0.07500
C1357       C  0.69585773  0.61119112  0.47308714    -0.06300
Cl1358     Cl  0.63430514  0.50155051  0.00263207    -0.49300
C1359       C  0.69088423  0.36878993  0.45335804     0.43200
H1360       H  0.64730550  0.61434297  0.08016356     0.07400
N1361       N  0.66260313  0.60599310  0.44165048    -0.46000
C1362       C  0.92246482  0.39552005  0.07201953     0.43100
N1363       N  0.91049138  0.44673597  0.03854742     0.02000
C1364       C  0.78939574  0.59319282  0.03731143    -0.05900
H1365       H  0.78050636  0.37049910  0.02113322     0.07500
C1366       C  0.83159772  0.39217673  0.44280162    -0.06300
Co1367     Co  0.85546970  0.49324148  0.05405815     0.74200
N1368       N  0.80791928  0.43125162  0.03412145    -0.25400
Co1369     Co  0.80593180  0.49187376  0.50502146     0.74100
C1370       C  0.80940968  0.35927832  0.45397303     0.43200
N1371       N  0.89216947  0.44615399  0.45755565     0.01600
N1372       N  0.80967237  0.43439531  0.47446066     0.01700
N1373       N  0.82422694  0.59575594  0.06703353    -0.46300
H1374       H  0.87943564  0.40151536  0.09113400     0.07500
N1375       N  0.82736458  0.43180687  0.05267502     0.02000
N1376       N  0.80664635  0.55361564  0.47599572     0.01700
C1377       C  0.80466067  0.63119086  0.45749865     0.43300
N1378       N  0.91296862  0.44992319  0.47487539    -0.24900
C1379       C  0.88483906  0.58159133  0.07719113    -0.05800
N1380       N  0.93212767  0.42230709  0.04977587    -0.46000
N1381       N  0.79339522  0.59965671  0.47696765    -0.46200
C1382       C  0.90961003  0.61262850  0.07433550     0.43100
N1383       N  0.82382199  0.55011221  0.05403383     0.02000
N1384       N  0.90866050  0.56002926  0.47452686    -0.24900
N1385       N  0.88788721  0.44050396  0.05359889    -0.25400
N1386       N  0.88653210  0.56036293  0.45883809     0.01600
H1387       H  0.95080227  0.58534308  0.46590795     0.07500
H1388       H  0.84103471  0.61310443  0.42924210     0.07500
N1389       N  0.80430280  0.54860916  0.03562487    -0.25500
N1390       N  0.83047457  0.43707202  0.45695418    -0.25100
N1391       N  0.90525855  0.56066175  0.03951529     0.02000
C1392       C  0.80994268  0.35403783  0.05629332     0.43400
C1393       C  0.93503610  0.42412431  0.46399381    -0.06300
N1394       N  0.82659971  0.55395482  0.45756487    -0.25100
H1395       H  0.84745125  0.38191180  0.42806691     0.07500
N1396       N  0.82972423  0.38640170  0.06581586    -0.46300
H1397       H  0.95602637  0.42541407  0.47167245     0.07500
C1398       C  0.91640533  0.60307792  0.43457590     0.43200
C1399       C  0.89301562  0.40712357  0.07374352    -0.05800
Co1400     Co  0.91035682  0.50488308  0.00708131     0.73800
N1401       N  0.89881722  0.41854853  0.43582187    -0.46000
C1402       C  0.80297682  0.62567655  0.05774487     0.43500
N1403       N  0.92237834  0.59591071  0.05075829    -0.50200
Co1404     Co  0.85866191  0.49897006  0.45754137     0.73900
C1405       C  0.82610172  0.60006487  0.44424821    -0.06300
C1406       C  0.79554582  0.38412233  0.03528870    -0.05900
N1407       N  0.88364770  0.55209520  0.05555742    -0.25400
N1408       N  0.79686466  0.38822416  0.47358745    -0.46200
H1409       H  0.77306204  0.60359660  0.02373514     0.07500
C1410       C  0.92902548  0.58578679  0.46059273    -0.06300
Cl1411     Cl  0.85781115  0.49709313  0.00585435    -0.49300
C1412       C  0.92534680  0.40243585  0.43797612     0.43200
H1413       H  0.87139427  0.57573417  0.09461579     0.07400
N1414       N  0.89005443  0.58741212  0.43639599    -0.46000
C1415       C  0.69833845  0.13648931  0.05755625     0.43100
N1416       N  0.72096153  0.06197799  0.05746291     0.02000
C1417       C  0.71215306  0.92090230  0.17901685    -0.05900
H1418       H  0.71980134  0.06887157  0.19994998     0.07500
C1419       C  0.83010367  0.07835517  0.13040783    -0.06300
Co1420     Co  0.70542341  0.00074260  0.10714283     0.74200
N1421       N  0.72567858  0.05412449  0.15714674    -0.25400
Co1422     Co  0.75857978  0.99867547  0.15519715     0.74100
C1423       C  0.82907782  0.10068812  0.15721581     0.43200
N1424       N  0.80336092  0.05112375  0.06935494     0.01600
N1425       N  0.79211780  0.05341491  0.15060296     0.01700
N1426       N  0.68402417  0.91940589  0.14301106    -0.46300
H1427       H  0.67283316  0.11212434  0.09476944     0.07500
N1428       N  0.70776703  0.05711306  0.13693459     0.02000
N1429       N  0.79047114  0.94072281  0.15192372     0.01700
C1430       C  0.82686165  0.89258411  0.15971740     0.43300
N1431       N  0.78298912  0.05386014  0.05186814    -0.24900
C1432       C  0.68725334  0.89932444  0.07842084    -0.05800
N1433       N  0.71910630  0.10859914  0.04495277    -0.46000
N1434       N  0.80402416  0.91534611  0.17156908    -0.46200
C1435       C  0.69603625  0.86833630  0.05486259     0.43100
N1436       N  0.70710818  0.94431188  0.13718835     0.02000
N1437       N  0.77978871  0.93655589  0.05262744    -0.24900
N1438       N  0.70342838  0.05914157  0.07805655    -0.25400
N1439       N  0.79975725  0.93437503  0.07063474     0.01600
H1440       H  0.76433666  0.87975606  0.02506729     0.07500
H1441       H  0.84381825  0.90720581  0.11726627     0.07500
N1442       N  0.72475549  0.94541394  0.15763526    -0.25500
N1443       N  0.80733500  0.04986987  0.12821616    -0.25100
N1444       N  0.71879668  0.94223958  0.05631976     0.02000
C1445       C  0.68471562  0.09045602  0.17025480     0.43400
C1446       C  0.78578622  0.09879614  0.03789664    -0.06300
N1447       N  0.80467426  0.93850966  0.12894993    -0.25100
H1448       H  0.84753382  0.07579797  0.11646099     0.07500
N1449       N  0.68413000  0.07961896  0.14384678    -0.46300
H1450       H  0.77118223  0.11272898  0.02325894     0.07500
C1451       C  0.80050543  0.85685444  0.05291330     0.43200
C1452       C  0.68791414  0.10282767  0.07912779    -0.05800
Co1453     Co  0.75064444  0.99909970  0.05330476     0.73800
N1454       N  0.81941362  0.09335154  0.06891974    -0.46000
C1455       C  0.68489235  0.90309797  0.16870302     0.43500
N1456       N  0.71601355  0.89783156  0.04239718    -0.46000
Co1457     Co  0.80376654  0.99340670  0.09899520     0.73900
C1458       C  0.82670731  0.90807722  0.13167014    -0.06300
C1459       C  0.71273764  0.07421417  0.17935628    -0.05900
N1460       N  0.70246390  0.94317422  0.07776475    -0.25400
N1461       N  0.80520293  0.08211431  0.16920497    -0.46200
H1462       H  0.71948165  0.92118384  0.19968756     0.07500
C1463       C  0.77924626  0.88999021  0.03995951    -0.06300
Cl1464     Cl  0.75458899  0.99835341  0.10396483    -0.49300
C1465       C  0.80990101  0.12592072  0.04941400     0.43200
H1466       H  0.67368131  0.88864880  0.09501630     0.07400
N1467       N  0.81213644  0.88771452  0.07181251    -0.46000
C1468       C  0.68539171  0.11508320  0.34019613     0.43100
N1469       N  0.71965720  0.06450127  0.35145653     0.02000
C1470       C  0.70856009  0.89443713  0.46192985    -0.05900
H1471       H  0.72577506  0.10462153  0.48543345     0.07500
C1472       C  0.81303027  0.09664029  0.43552047    -0.06300
Co1473     Co  0.69975106  0.00543457  0.40083121     0.74200
N1474       N  0.71629667  0.05632709  0.45193863    -0.25400
Co1475     Co  0.74596038  0.99659131  0.45256796     0.74100
C1476       C  0.79938431  0.13010774  0.45518147     0.43200
N1477       N  0.80122182  0.05668095  0.37582936     0.01600
N1478       N  0.77757585  0.05549128  0.45293549     0.01700
N1479       N  0.68061429  0.90173057  0.42586019    -0.46300
H1480       H  0.66241483  0.09892613  0.37973908     0.07500
N1481       N  0.69942004  0.06116245  0.43138001     0.02000
N1482       N  0.77605969  0.93583888  0.45143231     0.01700
C1483       C  0.79754553  0.86120368  0.45517729     0.43300
N1484       N  0.78489591  0.05879467  0.35440095    -0.24900
C1485       C  0.67780895  0.92741946  0.36307447    -0.05800
N1486       N  0.70937264  0.09250931  0.33081994    -0.46000
N1487       N  0.77572172  0.89014431  0.46461362    -0.46200
C1488       C  0.68081961  0.91880490  0.33439942     0.43100
N1489       N  0.69672042  0.94368789  0.42848191     0.02000
N1490       N  0.78434086  0.94966070  0.35145447    -0.24900
N1491       N  0.70226932  0.06449403  0.37235556    -0.25400
N1492       N  0.79961823  0.94418581  0.37352052     0.01600
H1493       H  0.79400503  0.93153196  0.30948084     0.07500
H1494       H  0.82746150  0.88188835  0.42036127     0.07500
N1495       N  0.71401332  0.93994572  0.44891808    -0.25500
N1496       N  0.79780184  0.05279732  0.43483168    -0.25100
N1497       N  0.71831727  0.95393524  0.34920721     0.02000
C1498       C  0.69505488  0.13521825  0.45262820     0.43400
C1499       C  0.79887338  0.08359384  0.33435754    -0.06300
N1500       N  0.79601399  0.93746905  0.43299931    -0.25100
H1501       H  0.82938725  0.10698946  0.42134729     0.07500
N1502       N  0.68682443  0.10751056  0.43076245    -0.46300
H1503       H  0.79282434  0.08332688  0.31329749     0.07500
C1504       C  0.82454261  0.90580337  0.34305454     0.43200
C1505       C  0.68121923  0.09685987  0.36759295    -0.05800
Co1506     Co  0.75170755  0.00665992  0.35101057     0.73800
N1507       N  0.82533415  0.07961035  0.37161184    -0.46000
C1508       C  0.68656067  0.86823218  0.44631348     0.43500
N1509       N  0.70650380  0.93586545  0.32684928    -0.46000
Co1510     Co  0.79860544  0.99755136  0.40464554     0.73900
C1511       C  0.81085487  0.89285547  0.43415447    -0.06300
C1512       C  0.71387970  0.09918727  0.46734998    -0.05900
N1513       N  0.70072565  0.95230212  0.36993917    -0.25400
N1514       N  0.77715931  0.10238830  0.46486665    -0.46200
H1515       H  0.71986109  0.88015839  0.47903818     0.07500
C1516       C  0.79884956  0.92721804  0.33075183    -0.06300
Cl1517     Cl  0.74901636  0.00136142  0.40213996    -0.49300
C1518       C  0.82607503  0.09675143  0.34596385     0.43200
H1519       H  0.65899414  0.92653858  0.37526077     0.07400
N1520       N  0.82296237  0.91839910  0.36926277    -0.46000
C1521       C  0.55144903  0.36273048  0.17732045     0.43100
N1522       N  0.53257387  0.36920830  0.21753103     0.02000
C1523       C  0.54853699  0.14669654  0.29905929    -0.05900
H1524       H  0.54254368  0.09341883  0.21997997     0.07500
C1525       C  0.93140478  0.21626651  0.20942787    -0.06300
Co1526     Co  0.55219964  0.27825987  0.25110464     0.74200
N1527       N  0.53540384  0.17631578  0.22655431    -0.25400
Co1528     Co  0.00217235  0.18024300  0.25491391     0.74100
C1529       C  0.93529513  0.16373419  0.19944110     0.43200
N1530       N  0.95299914  0.33973164  0.22336742     0.01600
N1531       N  0.96925253  0.18274567  0.22601367     0.01700
N1532       N  0.57509527  0.21865808  0.29616566    -0.46300
H1533       H  0.57750802  0.29252596  0.19123863     0.07500
N1534       N  0.55245757  0.21671535  0.22408023     0.02000
N1535       N  0.96939779  0.18538443  0.28376150     0.01700
C1536       C  0.93207227  0.16647407  0.30640123     0.43300
N1537       N  0.97171765  0.37702793  0.22254704    -0.24900
C1538       C  0.56749683  0.33966345  0.30224479    -0.05800
N1539       N  0.53160226  0.38830523  0.19227395    -0.46000
N1540       N  0.95621467  0.14602750  0.29624276    -0.46200
C1541       C  0.55582725  0.38375213  0.31675653     0.43100
N1542       N  0.55235077  0.22422606  0.28199896     0.02000
N1543       N  0.97492331  0.37862620  0.28279803    -0.24900
N1544       N  0.55097529  0.33107640  0.21944764    -0.25400
N1545       N  0.95599113  0.34156163  0.28455384     0.01600
H1546       H  0.98986416  0.43421438  0.31191792     0.07500
H1547       H  0.91414241  0.24819101  0.30017165     0.07500
N1548       N  0.53560075  0.18316099  0.28328329    -0.25500
N1549       N  0.95254172  0.22430951  0.22606202    -0.25100
N1550       N  0.53540436  0.37697161  0.27849205     0.02000
C1551       C  0.57666832  0.15275789  0.20781086     0.43400
C1552       C  0.96804396  0.40583235  0.20011568    -0.06300
N1553       N  0.95393562  0.22827618  0.28403022    -0.25100
H1554       H  0.91333997  0.24139536  0.20754775     0.07500
N1555       N  0.57647008  0.20419840  0.21280680    -0.46300
H1556       H  0.98122896  0.43786055  0.19374023     0.07500
C1557       C  0.95535227  0.37674745  0.32462255     0.43200
C1558       C  0.56386962  0.32488026  0.19572526    -0.05800
Co1559     Co  0.00368888  0.37777758  0.25015581     0.73800
N1560       N  0.93724403  0.33931015  0.20141139    -0.46000
C1561       C  0.57492101  0.17161815  0.30796983     0.43500
N1562       N  0.53617854  0.40529204  0.30091041    -0.46000
Co1563     Co  0.95366981  0.28407436  0.25442374     0.73900
C1564       C  0.93153301  0.22118509  0.29926697    -0.06300
C1565       C  0.54901396  0.13360467  0.21673405    -0.05900
N1566       N  0.55315049  0.33773038  0.27910050    -0.25400
N1567       N  0.95878983  0.14405654  0.21105743    -0.46200
H1568       H  0.54200861  0.10635361  0.30154480     0.07500
C1569       C  0.97526778  0.40411631  0.30668258    -0.06300
Cl1570     Cl  0.00290790  0.27933178  0.25249057    -0.49300
C1571       C  0.94542048  0.38025197  0.18572846     0.43200
H1572       H  0.58255552  0.31136916  0.30925414     0.07400
N1573       N  0.94425272  0.33865090  0.30907146    -0.46000
C1574       C  0.57421858  0.84457657  0.19955283     0.43100
N1575       N  0.53786365  0.82597762  0.22369524     0.02000
C1576       C  0.52619213  0.60920897  0.30786018    -0.05900
H1577       H  0.51415201  0.57749363  0.19409887     0.07500
C1578       C  0.93359029  0.68770954  0.20236348    -0.06300
Co1579     Co  0.55085060  0.72479840  0.25321444     0.74200
N1580       N  0.52818181  0.63342895  0.22321565    -0.25400
Co1581     Co  0.99723345  0.63618470  0.25276516     0.74100
C1582       C  0.94397145  0.64734493  0.18438877     0.43200
N1583       N  0.95384558  0.79783562  0.22618503     0.01600
N1584       N  0.96705461  0.64546552  0.22190968     0.01700
N1585       N  0.55890424  0.67179911  0.30869297    -0.46300
H1586       H  0.59390745  0.76498779  0.20824647     0.07500
N1587       N  0.54868761  0.66732462  0.22320210     0.02000
N1588       N  0.96649988  0.64122139  0.28308911     0.01700
C1589       C  0.94598207  0.63626149  0.32185485     0.43300
N1590       N  0.97273332  0.83530223  0.22499704    -0.24900
C1591       C  0.57806226  0.79262272  0.29270102    -0.05800
N1592       N  0.55039434  0.86503287  0.21025726    -0.46000
N1593       N  0.96468573  0.61239555  0.30549211    -0.46200
C1594       C  0.57845656  0.84853501  0.29695032     0.43100
N1595       N  0.54702875  0.66914507  0.28445939     0.02000
N1596       N  0.97309699  0.83533253  0.28309500    -0.24900
N1597       N  0.55347175  0.78297863  0.22381288    -0.25400
N1598       N  0.95507097  0.79628036  0.28402257     0.01600
H1599       H  0.97131233  0.91267030  0.30138495     0.07500
H1600       H  0.92161057  0.71199030  0.31469813     0.07500
N1601       N  0.52709235  0.63387428  0.28371415    -0.25500
N1602       N  0.94936720  0.68471926  0.22443648    -0.25100
N1603       N  0.53861328  0.82697165  0.28069065     0.02000
C1604       C  0.55350773  0.62653244  0.18497331     0.43400
C1605       C  0.96323075  0.87261092  0.20765529    -0.06300
N1606       N  0.95013235  0.68256326  0.28413300    -0.25100
H1607       H  0.91830629  0.71767129  0.19818296     0.07500
N1608       N  0.56390259  0.66528002  0.20061390    -0.46300
H1609       H  0.97268639  0.91046853  0.20395421     0.07500
C1610       C  0.93655967  0.85211674  0.31132575     0.43200
C1611       C  0.57598662  0.79064880  0.20853621    -0.05800
Co1612     Co  0.50554611  0.83233742  0.25312014     0.73800
N1613       N  0.93230811  0.80671942  0.21080490    -0.46000
C1614       C  0.54680491  0.63517311  0.32493186     0.43500
N1615       N  0.55331616  0.86765000  0.28928464    -0.46000
Co1616     Co  0.95202614  0.73998553  0.25482390     0.73900
C1617       C  0.93592597  0.68223685  0.30764664    -0.06300
C1618       C  0.52962835  0.60549493  0.20030715    -0.05900
N1619       N  0.55368108  0.78342206  0.28128572    -0.25400
N1620       N  0.96506393  0.62260993  0.19767829    -0.46200
H1621       H  0.51074901  0.58092717  0.31381457     0.07500
C1622       C  0.96281270  0.87361346  0.29955015    -0.06300
Cl1623     Cl  0.00149191  0.73363922  0.25340215    -0.49300
C1624       C  0.93642521  0.85196200  0.19792203     0.43200
H1625       H  0.59545106  0.76561205  0.29218138     0.07400
N1626       N  0.93377016  0.80491357  0.30016535    -0.46000
C1627       C  0.85254895  0.89150692  0.33190023    -0.04700
C1628       C  0.86854668  0.92732551  0.31611215    -0.01800
C1629       C  0.89777517  0.91990931  0.31286839     0.03200
C1630       C  0.91093418  0.87517826  0.32392805    -0.04700
C1631       C  0.89518448  0.84150827  0.34098712    -0.01800
C1632       C  0.86633326  0.84884464  0.34444293     0.03200
C1633       C  0.85519180  0.97189589  0.30328686     0.37800
C1634       C  0.90886792  0.79885947  0.35534690     0.37800
C1635       C  0.85071497  0.81192782  0.36118715     0.36200
C1636       C  0.91463623  0.95997530  0.30000815     0.36200
N1637       N  0.83845936  0.78235739  0.37455531    -0.38600
N1638       N  0.92843446  0.99279603  0.29081456    -0.38600
N1639       N  0.91948774  0.76500695  0.36711334    -0.38000
N1640       N  0.84478356  0.00722197  0.29251655    -0.38000
C1641       C  0.60452395  0.87940953  0.29886650    -0.04700
C1642       C  0.60534731  0.92363815  0.31567037    -0.01800
C1643       C  0.63118654  0.94281458  0.32419430     0.03200
C1644       C  0.65615967  0.91618225  0.31670965    -0.04700
C1645       C  0.65551880  0.87952125  0.29570007    -0.01800
C1646       C  0.62967306  0.86171931  0.28629756     0.03200
C1647       C  0.57975989  0.94739389  0.32563352     0.37800
C1648       C  0.68130295  0.85762654  0.28509627     0.37800
C1649       C  0.62949929  0.82544201  0.26376733     0.36200
C1650       C  0.63156996  0.98820681  0.34181241     0.36200
N1651       N  0.63038140  0.79660470  0.24573100    -0.38600
N1652       N  0.63113524  0.02387548  0.35622873    -0.38600
N1653       N  0.70186061  0.84026846  0.27658159    -0.38000
N1654       N  0.55947793  0.96674837  0.33359746    -0.38000
C1655       C  0.90576668  0.13746957  0.31159558    -0.04700
C1656       C  0.90427145  0.10026907  0.33260704    -0.01800
C1657       C  0.87812649  0.08250432  0.34188051     0.03200
C1658       C  0.85314372  0.10552748  0.33173987    -0.04700
C1659       C  0.85470879  0.13877290  0.30894130    -0.01800
C1660       C  0.88083762  0.15311746  0.29826794     0.03200
C1661       C  0.92946565  0.08271043  0.34594231     0.37800
C1662       C  0.82964982  0.16071866  0.29711130     0.37800
C1663       C  0.88160812  0.18479709  0.27368193     0.36200
C1664       C  0.87740818  0.03984898  0.36153055     0.36200
N1665       N  0.88181856  0.21018922  0.25415522    -0.38600
N1666       N  0.87716153  0.00553594  0.37701160    -0.38600
N1667       N  0.80987563  0.17858617  0.28746462    -0.38000
N1668       N  0.94938051  0.06871057  0.35687962    -0.38000
C1669       C  0.60253366  0.15149991  0.31720853    -0.04700
C1670       C  0.61814195  0.18509886  0.33412112    -0.01800
C1671       C  0.64710813  0.17861619  0.33663348     0.03200
C1672       C  0.66078959  0.13525130  0.32501408    -0.04700
C1673       C  0.64582449  0.10283240  0.30714375    -0.01800
C1674       C  0.61680486  0.11105059  0.30311784     0.03200
C1675       C  0.60438742  0.22694767  0.34907621     0.37800
C1676       C  0.66046609  0.06148987  0.29293856     0.37800
C1677       C  0.60181564  0.07915518  0.28399273     0.36200
C1678       C  0.66348295  0.21669197  0.35127010     0.36200
N1679       N  0.58939419  0.05436463  0.26872594    -0.38600
N1680       N  0.67741008  0.24658741  0.36229332    -0.38600
N1681       N  0.67265778  0.02889629  0.28167143    -0.38000
N1682       N  0.59355782  0.26017660  0.36117264    -0.38000
C1683       C  0.91225701  0.87470200  0.18390037    -0.04700
C1684       C  0.89475895  0.90998104  0.19798795    -0.01800
C1685       C  0.86590256  0.91222140  0.19247492     0.03200
C1686       C  0.85450724  0.88057486  0.17192794    -0.04700
C1687       C  0.87238574  0.84573925  0.15760706    -0.01800
C1688       C  0.90097283  0.84358198  0.16320955     0.03200
C1689       C  0.90643970  0.94226346  0.21897109     0.37800
C1690       C  0.86135396  0.81228303  0.13658592     0.37800
C1691       C  0.91878582  0.80673079  0.14869008     0.36200
C1692       C  0.84791138  0.94513896  0.20879861     0.36200
N1693       N  0.93307511  0.77735334  0.13732874    -0.38600
N1694       N  0.83330508  0.97004607  0.22237090    -0.38600
N1695       N  0.85229398  0.78719575  0.11933392    -0.38000
N1696       N  0.91623524  0.96816668  0.23546646    -0.38000
C1697       C  0.65790997  0.88609998  0.18112579    -0.04700
C1698       C  0.64401482  0.91472872  0.20176294    -0.01800
C1699       C  0.61530483  0.90514580  0.20732517     0.03200
C1700       C  0.59973792  0.87238859  0.19005047    -0.04700
C1701       C  0.61299496  0.85094937  0.16725086    -0.01800
C1702       C  0.64208262  0.85179550  0.16507873     0.03200
C1703       C  0.65865440  0.95546589  0.21601601     0.37800
C1704       C  0.59623329  0.83076200  0.14541842     0.37800
C1705       C  0.65633843  0.81693594  0.14651596     0.36200
C1706       C  0.60161201  0.92913487  0.23032721     0.36200
N1707       N  0.66939364  0.78943920  0.13284071    -0.38600
N1708       N  0.59013873  0.94777139  0.24861103    -0.38600
N1709       N  0.58228595  0.81643126  0.12796695    -0.38000
N1710       N  0.67048919  0.98871875  0.22680074    -0.38000
C1711       C  0.85540042  0.12024294  0.17000566    -0.04700
C1712       C  0.86315518  0.10636696  0.19667174    -0.01800
C1713       C  0.89118267  0.11217622  0.20508384     0.03200
C1714       C  0.91133157  0.13515665  0.18765356    -0.04700
C1715       C  0.90341833  0.14969500  0.16128378    -0.01800
C1716       C  0.87556750  0.14497080  0.15301014     0.03200
C1717       C  0.84197333  0.09132165  0.21621129     0.37800
C1718       C  0.92420442  0.16947573  0.14238894     0.37800
C1719       C  0.86736719  0.16909846  0.12750982     0.36200
C1720       C  0.89942687  0.09449366  0.23174009     0.36200
N1721       N  0.86075576  0.18837221  0.10725001    -0.38600
N1722       N  0.90616037  0.07966949  0.25289602    -0.38600
N1723       N  0.94070304  0.18395708  0.12688572    -0.38000
N1724       N  0.82484312  0.08130739  0.23203577    -0.38000
C1725       C  0.65782877  0.09458490  0.18578169    -0.04700
C1726       C  0.65510441  0.12951549  0.20756981    -0.01800
C1727       C  0.62833842  0.14431450  0.21699163     0.03200
C1728       C  0.60389892  0.12451582  0.20442947    -0.04700
C1729       C  0.60676501  0.08337735  0.18574062    -0.01800
C1730       C  0.63353838  0.06826936  0.17646906     0.03200
C1731       C  0.67977686  0.15241712  0.21933720     0.37800
C1732       C  0.58220044  0.05859394  0.17477743     0.37800
C1733       C  0.63564024  0.02637429  0.15671571     0.36200
C1734       C  0.62628830  0.18093524  0.23935607     0.36200
N1735       N  0.63685085  0.99333313  0.14072847    -0.38600
N1736       N  0.62510895  0.21038586  0.25712078    -0.38600
N1737       N  0.56274459  0.03838870  0.16599319    -0.38000
N1738       N  0.69952290  0.17037270  0.22877593    -0.38000
C1739       C  0.80306099  0.68506907  0.05788232    -0.04700
C1740       C  0.78054327  0.71350479  0.06925831    -0.01800
C1741       C  0.77974890  0.76930472  0.06779328     0.03200
C1742       C  0.80131306  0.79769561  0.05463493    -0.04700
C1743       C  0.82487920  0.76962493  0.04537245    -0.01800
C1744       C  0.82563432  0.71386767  0.04659115     0.03200
C1745       C  0.75886726  0.68537183  0.08380345     0.37800
C1746       C  0.84895795  0.79856137  0.03578017     0.37800
C1747       C  0.84995145  0.68641420  0.03644468     0.36200
C1748       C  0.75799439  0.79778722  0.08198705     0.36200
N1749       N  0.86960231  0.66500600  0.02845042    -0.38600
N1750       N  0.74101214  0.82061136  0.09385187    -0.38600
N1751       N  0.86826127  0.82220986  0.02878071    -0.38000
N1752       N  0.74169188  0.66295465  0.09563912    -0.38000
C1753       C  0.81203360  0.29535857  0.05728366    -0.04700
C1754       C  0.79192643  0.26550984  0.07145003    -0.01800
C1755       C  0.79145587  0.21020830  0.06892900     0.03200
C1756       C  0.81154530  0.18412742  0.05279087    -0.04700
C1757       C  0.83419631  0.21316320  0.04239263    -0.01800
C1758       C  0.83417716  0.26870925  0.04409695     0.03200
C1759       C  0.77390329  0.29140876  0.09082431     0.37800
C1760       C  0.85842215  0.18563726  0.03208438     0.37800
C1761       C  0.85755478  0.29831044  0.03349110     0.36200
C1762       C  0.77205574  0.17887318  0.08468611     0.36200
N1763       N  0.87640271  0.32220600  0.52557974    -0.38600
N1764       N  0.75786541  0.15088453  0.09705345    -0.38600
N1765       N  0.87814481  0.16349063  0.02479617    -0.38000
N1766       N  0.76063242  0.31261647  0.10709899    -0.38000
C1767       C  0.80307692  0.69030703  0.45728108    -0.04700
C1768       C  0.82670072  0.72172369  0.46301766    -0.01800
C1769       C  0.82476275  0.77731346  0.46288258     0.03200
C1770       C  0.79946690  0.80240941  0.45652372    -0.04700
C1771       C  0.77744107  0.77135832  0.44691130    -0.01800
C1772       C  0.77880265  0.71579388  0.44810770     0.03200
C1773       C  0.85372239  0.69786031  0.46692618     0.37800
C1774       C  0.75631379  0.79723566  0.43111382     0.37800
C1775       C  0.75692806  0.68440069  0.43657840     0.36200
C1776       C  0.84952287  0.80881826  0.46658100     0.36200
N1777       N  0.74043761  0.65765654  0.42686016    -0.38600
N1778       N  0.86938518  0.83396350  0.46876195    -0.38600
N1779       N  0.74154187  0.82116015  0.41744313    -0.38000
N1780       N  0.87586771  0.68072220  0.46938755    -0.38000
C1781       C  0.80207149  0.18889324  0.45447815    -0.04700
C1782       C  0.82780715  0.21285825  0.46041448    -0.01800
C1783       C  0.83057888  0.26825900  0.45952602     0.03200
C1784       C  0.80763236  0.30046991  0.45252327    -0.04700
C1785       C  0.78348400  0.27609571  0.44258363    -0.01800
C1786       C  0.78111123  0.22055722  0.44275166     0.03200
C1787       C  0.85219548  0.18024160  0.46448913     0.37800
C1788       C  0.76270951  0.30806017  0.42919152     0.37800
C1789       C  0.75954775  0.19569825  0.42705064     0.36200
C1790       C  0.85756876  0.29170696  0.46395757     0.36200
N1791       N  0.74302639  0.17557950  0.41375310    -0.38600
N1792       N  0.87920827  0.31061811  0.46672169    -0.38600
N1793       N  0.74658972  0.33389425  0.41800093    -0.38000
N1794       N  0.87173266  0.15394262  0.46668295    -0.38000
C1795       C  0.94172743  0.62406665  0.35096381    -0.04700
C1796       C  0.92315729  0.58411081  0.35818275    -0.01800
C1797       C  0.91736363  0.57365410  0.38562681     0.03200
C1798       C  0.92886086  0.60557290  0.40653027    -0.04700
C1799       C  0.94891376  0.64356012  0.39921884    -0.01800
C1800       C  0.95530913  0.65287269  0.37143628     0.03200
C1801       C  0.90962169  0.55381974  0.33713831     0.37800
C1802       C  0.96231539  0.67384949  0.42012969     0.37800
C1803       C  0.97498492  0.69344058  0.36375999     0.36200
C1804       C  0.89913536  0.52971019  0.39171330     0.36200
N1805       N  0.99037498  0.72619341  0.35738328    -0.38600
N1806       N  0.88412836  0.49510699  0.39581186    -0.38600
N1807       N  0.97314467  0.69769991  0.43690807    -0.38000
N1808       N  0.89897950  0.52934172  0.32048694    -0.38000
C1809       C  0.92077523  0.63925576  0.09929973    -0.04700
C1810       C  0.94918694  0.64058373  0.10620702    -0.01800
C1811       C  0.95690970  0.64537470  0.13394523     0.03200
C1812       C  0.93650328  0.64412009  0.15488527    -0.04700
C1813       C  0.90837267  0.64995428  0.14736469    -0.01800
C1814       C  0.90115830  0.65293428  0.11983135     0.03200
C1815       C  0.97010795  0.64006943  0.08493249     0.37800
C1816       C  0.88642553  0.65232559  0.16777289     0.37800
C1817       C  0.87298736  0.66819891  0.11272979     0.36200
C1818       C  0.98480857  0.66038249  0.14078224     0.36200
N1819       N  0.85033624  0.67869362  0.10704444    -0.38600
N1820       N  0.50632321  0.67629055  0.14683065    -0.38600
N1821       N  0.86879845  0.65438523  0.18388582    -0.38000
N1822       N  0.48671974  0.64043202  0.06779566    -0.38000
C1823       C  0.94143351  0.39131476  0.41247408    -0.04700
C1824       C  0.93864437  0.34236930  0.39974979    -0.01800
C1825       C  0.94495821  0.33649995  0.37173514     0.03200
C1826       C  0.95220908  0.38072456  0.35532773    -0.04700
C1827       C  0.95702495  0.42882461  0.36893589    -0.01800
C1828       C  0.95304820  0.43304480  0.39738257     0.03200
C1829       C  0.92993103  0.29736678  0.41583331     0.37800
C1830       C  0.96449012  0.47533113  0.35373982     0.37800
C1831       C  0.96099715  0.48048875  0.41124196     0.36200
C1832       C  0.94564632  0.28385424  0.36101359     0.36200
N1833       N  0.96809797  0.51784572  0.42240779    -0.38600
N1834       N  0.94683972  0.24036917  0.35452360    -0.38600
N1835       N  0.97031126  0.51246433  0.34140209    -0.38000
N1836       N  0.92338305  0.26099475  0.42848949    -0.38000
C1837       C  0.93697276  0.39250966  0.09857311    -0.04700
C1838       C  0.94358161  0.34383521  0.11048211    -0.01800
C1839       C  0.94768800  0.34024923  0.13887961     0.03200
C1840       C  0.94121415  0.38355007  0.15584591    -0.04700
C1841       C  0.93539837  0.43250423  0.14365387    -0.01800
C1842       C  0.93606554  0.43720865  0.11519552     0.03200
C1843       C  0.94757785  0.29860520  0.09324140     0.37800
C1844       C  0.93114144  0.47879606  0.16023987     0.37800
C1845       C  0.94014184  0.48761010  0.10266982     0.36200
C1846       C  0.96160046  0.29480752  0.15022656     0.36200
N1847       N  0.94579195  0.52660133  0.09208753    -0.38600
N1848       N  0.97374361  0.25994191  0.15956840    -0.38600
N1849       N  0.92786510  0.51563216  0.17354972    -0.38000
N1850       N  0.95097569  0.26289383  0.07916925    -0.38000
C1851       C  0.67985760  0.81020473  0.44625181    -0.04700
C1852       C  0.67055232  0.78471467  0.47019735    -0.01800
C1853       C  0.66946095  0.72903136  0.47160353     0.03200
C1854       C  0.67823286  0.69836333  0.44931003    -0.04700
C1855       C  0.68231427  0.72357098  0.42415875    -0.01800
C1856       C  0.68285811  0.77910334  0.42248511     0.03200
C1857       C  0.65879808  0.81589806  0.99193809     0.37800
C1858       C  0.68557638  0.69222951  0.39982430     0.37800
C1859       C  0.68710482  0.80272929  0.39605872     0.36200
C1860       C  0.65579455  0.70311981  0.49426677     0.36200
N1861       N  0.69104818  0.81830289  0.37431184    -0.38600
N1862       N  0.64394240  0.68151043  0.01150609    -0.38600
N1863       N  0.68795803  0.66733480  0.38036838    -0.38000
N1864       N  0.64847596  0.84088786  0.00880163    -0.38000
C1865       C  0.69334421  0.19488185  0.45381292    -0.04700
C1866       C  0.67428653  0.22316197  0.43734765    -0.01800
C1867       C  0.67525739  0.27892170  0.43539217     0.03200
C1868       C  0.69284067  0.30888444  0.45245232    -0.04700
C1869       C  0.71059688  0.28021283  0.47007124    -0.01800
C1870       C  0.71153385  0.22476358  0.47003191     0.03200
C1871       C  0.65237082  0.19550914  0.42330680     0.37800
C1872       C  0.72776907  0.30559766  0.48990986     0.37800
C1873       C  0.73182985  0.20045801  0.48757691     0.36200
C1874       C  0.65831518  0.30453514  0.41504145     0.36200
N1875       N  0.74891088  0.18627673  0.50223129    -0.38600
N1876       N  0.64499666  0.32365056  0.39821031    -0.38600
N1877       N  0.74165680  0.32097660  0.50709133    -0.38000
N1878       N  0.63452564  0.17389791  0.41244180    -0.38000
C1879       C  0.69184798  0.80950437  0.05175891    -0.04700
C1880       C  0.71000584  0.77766928  0.03615625    -0.01800
C1881       C  0.70907598  0.72214221  0.03798344     0.03200
C1882       C  0.68970843  0.69607070  0.05529665    -0.04700
C1883       C  0.67159990  0.72835998  0.07089556    -0.01800
C1884       C  0.67075189  0.78343569  0.06681446     0.03200
C1885       C  0.72924127  0.79969811  0.01657515     0.37800
C1886       C  0.65573904  0.70679060  0.09331910     0.37800
C1887       C  0.64635124  0.81228201  0.07582505     0.36200
C1888       C  0.72949163  0.69366345  0.02207690     0.36200
N1889       N  0.62683136  0.83579950  0.08248095    -0.38600
N1890       N  0.74679989  0.67664603  0.00825935    -0.38600
N1891       N  0.64387994  0.69031949  0.11202016    -0.38000
N1892       N  0.74534084  0.80974273  0.99982188    -0.38000
C1893       C  0.69398261  0.19539962  0.05646854    -0.04700
C1894       C  0.69890978  0.22730482  0.07956556    -0.01800
C1895       C  0.69593748  0.28263716  0.07808118     0.03200
C1896       C  0.68764946  0.30716882  0.05381072    -0.04700
C1897       C  0.67722464  0.27500101  0.03295370    -0.01800
C1898       C  0.68050637  0.21943857  0.03420313     0.03200
C1899       C  0.70438821  0.20390014  0.10581129     0.37800
C1900       C  0.65972888  0.29863719  0.01240765     0.37800
C1901       C  0.66627223  0.18663375  0.01489872     0.36200
C1902       C  0.69893073  0.31406144  0.10234075     0.36200
N1903       N  0.65409145  0.16055490  0.50000319    -0.38600
N1904       N  0.70090566  0.33873980  0.12186984    -0.38600
N1905       N  0.64513909  0.31777835  0.49662139    -0.38000
N1906       N  0.70817493  0.18674252  0.12724130    -0.38000
C1907       C  0.55661875  0.62416307  0.41307378    -0.04700
C1908       C  0.56131021  0.67216297  0.39954889    -0.01800
C1909       C  0.55671749  0.67698266  0.37124962     0.03200
C1910       C  0.54888883  0.63258283  0.35564186    -0.04700
C1911       C  0.54226488  0.58564446  0.36996108    -0.01800
C1912       C  0.54477579  0.58257106  0.39849861     0.03200
C1913       C  0.57136673  0.71653068  0.41495289     0.37800
C1914       C  0.53474806  0.53881196  0.35543275     0.37800
C1915       C  0.53615655  0.53562378  0.41290261     0.36200
C1916       C  0.55952057  0.72833427  0.35888893     0.36200
N1917       N  0.52880135  0.49877323  0.42468271    -0.38600
N1918       N  0.56146433  0.77034187  0.35009160    -0.38600
N1919       N  0.02883055  0.50149529  0.34359591    -0.38000
N1920       N  0.57925944  0.75187209  0.42734653    -0.38000
C1921       C  0.55759400  0.61803980  0.09677533    -0.04700
C1922       C  0.56965902  0.66061941  0.11050273    -0.01800
C1923       C  0.57136874  0.66081026  0.13916129     0.03200
C1924       C  0.55829715  0.62102039  0.15476525    -0.04700
C1925       C  0.54689972  0.57791542  0.14088059    -0.01800
C1926       C  0.54479550  0.57817635  0.11230721     0.03200
C1927       C  0.58158703  0.70295514  0.09453435     0.37800
C1928       C  0.54274115  0.52969825  0.15578386     0.37800
C1929       C  0.53001521  0.53682273  0.09875715     0.36200
C1930       C  0.59065489  0.69594069  0.15200215     0.36200
N1931       N  0.51744462  0.50509355  0.08761548    -0.38600
N1932       N  0.60737024  0.72133092  0.16231360    -0.38600
N1933       N  0.54126515  0.49228730  0.16903892    -0.38000
N1934       N  0.59066473  0.73617748  0.08108752    -0.38000
C1935       C  0.56598335  0.40481187  0.40277309    -0.04700
C1936       C  0.54657969  0.36787456  0.39334473    -0.01800
C1937       C  0.54253000  0.36156263  0.36510031     0.03200
C1938       C  0.55779142  0.39237579  0.34624465    -0.04700
C1939       C  0.57594687  0.43089477  0.35542577    -0.01800
C1940       C  0.57944205  0.43847633  0.38334879     0.03200
C1941       C  0.53198319  0.33455936  0.41261492     0.37800
C1942       C  0.59142247  0.46256979  0.33581283     0.37800
C1943       C  0.59875465  0.47907704  0.39113776     0.36200
C1944       C  0.52397243  0.32133937  0.35530952     0.36200
N1945       N  0.61564085  0.50981493  0.39581540    -0.38600
N1946       N  0.50953894  0.28883361  0.34721757    -0.38600
N1947       N  0.60357738  0.48774208  0.32013538    -0.38000
N1948       N  0.52036064  0.30810929  0.42810979    -0.38000
C1949       C  0.55504868  0.36146169  0.14673963    -0.04700
C1950       C  0.57928699  0.33789714  0.13506359    -0.01800
C1951       C  0.58166452  0.33147374  0.10679786     0.03200
C1952       C  0.56280255  0.35651844  0.08934250    -0.04700
C1953       C  0.53756911  0.37483369  0.10019894    -0.01800
C1954       C  0.53415432  0.37959688  0.12866597     0.03200
C1955       C  0.60386544  0.32688841  0.15103174     0.37800
C1956       C  0.51535079  0.38940665  0.08196896     0.37800
C1957       C  0.51145429  0.41134784  0.13824990     0.36200
C1958       C  0.60505840  0.30280483  0.09518075     0.36200
N1959       N  0.99442106  0.44102960  0.14444541    -0.38600
N1960       N  0.62344838  0.27947128  0.08582526    -0.38600
N1961       N  0.99752545  0.40042713  0.06735772    -0.38000
N1962       N  0.62379830  0.31840020  0.16334046    -0.38000
C1963       C  0.68566284  0.36598424  0.55219468     0.43100
N1964       N  0.68422163  0.44283602  0.53310087     0.02000
C1965       C  0.55935740  0.58185612  0.54499234    -0.05900
H1966       H  0.54397410  0.39812281  0.53099409     0.07500
C1967       C  0.60617387  0.40809884  0.93478117    -0.06300
Co1968     Co  0.63309436  0.50101826  0.55093361     0.74200
N1969       N  0.58250487  0.44189869  0.53165706    -0.25400
Co1970     Co  0.58158708  0.49933985  0.50078280     0.74100
C1971       C  0.57668763  0.40131880  0.93127791     0.43200
N1972       N  0.66819097  0.44288622  0.95618203     0.01600
N1973       N  0.58432737  0.44469949  0.96829723     0.01700
N1974       N  0.59683193  0.58516617  0.57168720    -0.46300
H1975       H  0.64853843  0.38494427  0.57953827     0.07500
N1976       N  0.60282088  0.44327976  0.54953433     0.02000
N1977       N  0.58305564  0.55649058  0.96996315     0.01700
C1978       C  0.57275382  0.61191911  0.93806169     0.43300
N1979       N  0.68798829  0.44719742  0.97399607    -0.24900
C1980       C  0.66322525  0.60477386  0.56563688    -0.05800
N1981       N  0.69720230  0.39657044  0.53251771    -0.46000
N1982       N  0.56265610  0.58683345  0.96052310    -0.46200
C1983       C  0.68635130  0.63657826  0.55456300     0.43100
N1984       N  0.60180550  0.55649520  0.55010363     0.02000
N1985       N  0.68432565  0.56327345  0.97414609    -0.24900
N1986       N  0.66385234  0.44323570  0.55115935    -0.25400
N1987       N  0.66542920  0.56102984  0.95508742     0.01600
H1988       H  0.71063562  0.62559995  0.98689929     0.07500
H1989       H  0.61444170  0.59964052  0.91704595     0.07500
N1990       N  0.58042227  0.55399608  0.53344317    -0.25500
N1991       N  0.60835085  0.44046728  0.95554877    -0.25100
N1992       N  0.68378778  0.56116237  0.53402315     0.02000
C1993       C  0.57554758  0.38361201  0.56553394     0.43400
C1994       C  0.70435162  0.40488720  0.97250078    -0.06300
N1995       N  0.60497838  0.55678042  0.95365392    -0.25100
H1996       H  0.62180486  0.40498276  0.91905211     0.07500
N1997       N  0.59920658  0.40996612  0.56962504    -0.46300
H1998       H  0.72209717  0.40007805  0.98527571     0.07500
C1999       C  0.68114927  0.63995046  0.95179492     0.43200
C2000       C  0.66380285  0.39732596  0.56469648    -0.05800
Co2001     Co  0.68624788  0.50394020  0.00382424     0.73800
N2002       N  0.66883197  0.39661487  0.94385823    -0.46000
C2003       C  0.57079835  0.60347869  0.57041716     0.43500
N2004       N  0.69792409  0.60576508  0.53510953    -0.46000
Co2005     Co  0.63690858  0.50009426  0.95473159     0.73900
C2006       C  0.60091568  0.59281013  0.93431615    -0.06300
C2007       C  0.56384917  0.40564871  0.54026956    -0.05900
N2008       N  0.66307041  0.56006132  0.55149102    -0.25400
N2009       N  0.56418660  0.42391721  0.95337872    -0.46200
H2010       H  0.53810772  0.58273713  0.53796952     0.07500
C2011       C  0.69585755  0.61119571  0.97308853    -0.06300
Cl2012     Cl  0.63430560  0.50154545  0.50263174    -0.49300
C2013       C  0.69088357  0.36879371  0.95335823     0.43200
H2014       H  0.64730495  0.61434279  0.58016102     0.07400
N2015       N  0.66260370  0.60599755  0.94165109    -0.46000
C2016       C  0.92246431  0.39552072  0.57202023     0.43100
N2017       N  0.91049107  0.44673514  0.53854754     0.02000
C2018       C  0.78939548  0.59319252  0.53731178    -0.05900
H2019       H  0.78050537  0.37049999  0.52113449     0.07500
C2020       C  0.83159766  0.39217825  0.94280082    -0.06300
Co2021     Co  0.85546962  0.49324164  0.55405815     0.74200
N2022       N  0.80791894  0.43125193  0.53412201    -0.25400
Co2023     Co  0.80593187  0.49187410  0.00502123     0.74100
C2024       C  0.80940943  0.35927977  0.95397180     0.43200
N2025       N  0.89216966  0.44615527  0.95755572     0.01600
N2026       N  0.80967239  0.43439611  0.97446014     0.01700
N2027       N  0.82422655  0.59575527  0.56703407    -0.46300
H2028       H  0.87943520  0.40151739  0.59113471     0.07500
N2029       N  0.82736425  0.43180729  0.55267552     0.02000
N2030       N  0.80664651  0.55361641  0.97599563     0.01700
C2031       C  0.80466148  0.63119172  0.95749866     0.43300
N2032       N  0.91296891  0.44992521  0.97487528    -0.24900
C2033       C  0.88483932  0.58159207  0.57719013    -0.05800
N2034       N  0.93212729  0.42230665  0.54977628    -0.46000
N2035       N  0.79339576  0.59965793  0.97696767    -0.46200
C2036       C  0.90961065  0.61262842  0.57433444     0.43100
N2037       N  0.82382196  0.55011217  0.55403392     0.02000
N2038       N  0.90866024  0.56003094  0.97452676    -0.24900
N2039       N  0.88788688  0.44050397  0.55359909    -0.25400
N2040       N  0.88653174  0.56036410  0.95883816     0.01600
H2041       H  0.95080195  0.58534409  0.96590691     0.07500
H2042       H  0.84103486  0.61310430  0.92924175     0.07500
N2043       N  0.80430276  0.54860916  0.53562491    -0.25500
N2044       N  0.83047472  0.43707297  0.95695380    -0.25100
N2045       N  0.90525880  0.56066079  0.53951466     0.02000
C2046       C  0.80994189  0.35403869  0.55629440     0.43400
C2047       C  0.93503667  0.42412765  0.96399341    -0.06300
N2048       N  0.82659972  0.55395519  0.95756470    -0.25100
H2049       H  0.84745125  0.38191366  0.92806598     0.07500
N2050       N  0.82972365  0.38640239  0.56581668    -0.46300
H2051       H  0.95602703  0.42541853  0.97167182     0.07500
C2052       C  0.91640459  0.60307828  0.93457511     0.43200
C2053       C  0.89301518  0.40712452  0.57374411    -0.05800
Co2054     Co  0.91035680  0.50488152  0.50708122     0.73800
N2055       N  0.89881759  0.41855035  0.93582177    -0.46000
C2056       C  0.80297634  0.62567579  0.55774560     0.43500
N2057       N  0.92237886  0.59590954  0.55075740    -0.50200
Co2058     Co  0.85866194  0.49897087  0.95754135     0.73900
C2059       C  0.82610202  0.60006517  0.94424798    -0.06300
C2060       C  0.79554503  0.38412300  0.53528964    -0.05900
N2061       N  0.88364781  0.55209529  0.55555673    -0.25400
N2062       N  0.79686449  0.38822527  0.97358645    -0.46200
H2063       H  0.77306166  0.60359634  0.52373566     0.07500
C2064       C  0.92902508  0.58578794  0.96059204    -0.06300
Cl2065     Cl  0.85781112  0.49709238  0.50585437    -0.49300
C2066       C  0.92534739  0.40243900  0.93797577     0.43200
H2067       H  0.87139454  0.57573507  0.59461483     0.07400
N2068       N  0.89005378  0.58741257  0.93639579    -0.46000
C2069       C  0.69833990  0.13648717  0.55755953     0.43100
N2070       N  0.72096330  0.06197628  0.55746557     0.02000
C2071       C  0.71215702  0.92089845  0.67901896    -0.05900
H2072       H  0.71980367  0.06887120  0.69995293     0.07500
C2073       C  0.83010586  0.07835537  0.63040937    -0.06300
Co2074     Co  0.70542628  0.00073981  0.60714550     0.74200
N2075       N  0.72568089  0.05412214  0.65714968    -0.25400
Co2076     Co  0.75858283  0.99867419  0.65519939     0.74100
C2077       C  0.82908021  0.10068799  0.65721741     0.43200
N2078       N  0.80336264  0.05112456  0.56935653     0.01600
N2079       N  0.79212030  0.05341460  0.65060486     0.01700
N2080       N  0.68402834  0.91940129  0.64301305    -0.46300
H2081       H  0.67283535  0.11212129  0.59477296     0.07500
N2082       N  0.70776928  0.05710989  0.63693754     0.02000
N2083       N  0.79047476  0.94072275  0.65192540     0.01700
C2084       C  0.82686537  0.89258401  0.65971834     0.43300
N2085       N  0.78299081  0.05385985  0.55186974    -0.24900
C2086       C  0.68725697  0.89932126  0.57842357    -0.05800
N2087       N  0.71910760  0.10859751  0.54495556    -0.46000
N2088       N  0.80402814  0.91534598  0.67157051    -0.46200
C2089       C  0.69603947  0.86833387  0.55486492     0.43100
N2090       N  0.70711198  0.94430854  0.63719057     0.02000
N2091       N  0.77979112  0.93655589  0.55262920    -0.24900
N2092       N  0.70343058  0.05913928  0.57805949    -0.25400
N2093       N  0.79975982  0.93437519  0.57063631     0.01600
H2094       H  0.76433813  0.87975584  0.52506982     0.07500
H2095       H  0.84382122  0.90720567  0.61726697     0.07500
N2096       N  0.72475922  0.94541114  0.65763753    -0.25500
N2097       N  0.80733723  0.04987004  0.62821786    -0.25100
N2098       N  0.71879923  0.94223793  0.55632192     0.02000
C2099       C  0.68471767  0.09045389  0.67025745     0.43400
C2100       C  0.78578744  0.09879546  0.53789781    -0.06300
N2101       N  0.80467749  0.93850989  0.62895139    -0.25100
H2102       H  0.84753587  0.07579827  0.61646241     0.07500
N2103       N  0.68413216  0.07961560  0.64384955    -0.46300
H2104       H  0.77118340  0.11272713  0.52325999     0.07500
C2105       C  0.80050680  0.85685370  0.55291586     0.43200
C2106       C  0.68791612  0.10282517  0.57913119    -0.05800
Co2107     Co  0.75064655  0.99909885  0.55330679     0.73800
N2108       N  0.81941483  0.09335311  0.56892105    -0.46000
C2109       C  0.68489656  0.90309290  0.66870488     0.43500
N2110       N  0.71601611  0.89783016  0.54239914    -0.46000
Co2111     Co  0.80376906  0.99340711  0.59899677     0.73900
C2112       C  0.82671056  0.90807732  0.63167113    -0.06300
C2113       C  0.71273982  0.07421250  0.67935906    -0.05900
N2114       N  0.70246697  0.94317164  0.57776731    -0.25400
N2115       N  0.80520557  0.08211382  0.66920684    -0.46200
H2116       H  0.71948550  0.92117998  0.69968965     0.07500
C2117       C  0.77924810  0.88998987  0.53996178    -0.06300
Cl2118     Cl  0.75459168  0.99835252  0.60396694    -0.49300
C2119       C  0.80990184  0.12592135  0.54941502     0.43200
H2120       H  0.67368544  0.88864491  0.59501934     0.07400
N2121       N  0.81213848  0.88771417  0.57181454    -0.46000
C2122       C  0.68539260  0.11508401  0.84019538     0.43100
N2123       N  0.71965845  0.06450282  0.85145583     0.02000
C2124       C  0.70855912  0.89444074  0.96192978    -0.05900
H2125       H  0.72577537  0.10462467  0.98543272     0.07500
C2126       C  0.81303182  0.09664143  0.93552216    -0.06300
Co2127     Co  0.69975219  0.00543655  0.90083033     0.74200
N2128       N  0.71629727  0.05632954  0.95193801    -0.25400
Co2129     Co  0.74596091  0.99659325  0.95256759     0.74100
C2130       C  0.79938561  0.13010891  0.95518300     0.43200
N2131       N  0.80122250  0.05668499  0.87583014     0.01600
N2132       N  0.77757659  0.05549299  0.95293595     0.01700
N2133       N  0.68061434  0.90173353  0.92585938    -0.46300
H2134       H  0.66241588  0.09892656  0.87973832     0.07500
N2135       N  0.69942082  0.06116475  0.93137919     0.02000
N2136       N  0.77606027  0.93584021  0.95143177     0.01700
C2137       C  0.79754579  0.86120446  0.95517586     0.43300
N2138       N  0.78489698  0.05879786  0.85440143    -0.24900
C2139       C  0.67781022  0.92742206  0.86307316    -0.05800
N2140       N  0.70937366  0.09251043  0.83081919    -0.46000
N2141       N  0.77572194  0.89014495  0.96461234    -0.46200
C2142       C  0.68082130  0.91880655  0.83439825     0.43100
N2143       N  0.69672104  0.94369004  0.92848085     0.02000
N2144       N  0.78434335  0.94966382  0.85145423    -0.24900
N2145       N  0.70227061  0.06449568  0.87235487    -0.25400
N2146       N  0.79962074  0.94418970  0.87352038     0.01600
H2147       H  0.79400821  0.93153582  0.80948056     0.07500
H2148       H  0.82746242  0.88189065  0.92036050     0.07500
N2149       N  0.71401352  0.93994810  0.94891740    -0.25500
N2150       N  0.79780290  0.05279910  0.93483254    -0.25100
N2151       N  0.71831900  0.95393663  0.84920645     0.02000
C2152       C  0.69505538  0.13522101  0.95262713     0.43400
C2153       C  0.79887424  0.08359850  0.83435841    -0.06300
N2154       N  0.79601497  0.93747111  0.93299905    -0.25100
H2155       H  0.82938927  0.10699035  0.92134947     0.07500
N2156       N  0.68682522  0.10751291  0.93076138    -0.46300
H2157       H  0.79282552  0.08333163  0.81329835     0.07500
C2158       C  0.82454606  0.90580902  0.84305445     0.43200
C2159       C  0.68122033  0.09686093  0.86759222    -0.05800
Co2160     Co  0.75170923  0.00666201  0.85101022     0.73800
N2161       N  0.82533434  0.07961660  0.87161324    -0.46000
C2162       C  0.68655973  0.86823587  0.94631326     0.43500
N2163       N  0.70650574  0.93586660  0.82684841    -0.46000
Co2164     Co  0.79860671  0.99755434  0.90464584     0.73900
C2165       C  0.81085561  0.89285726  0.93415376    -0.06300
C2166       C  0.71388012  0.09919003  0.96734916    -0.05900
N2167       N  0.70072704  0.95230412  0.86993816    -0.25400
N2168       N  0.77716015  0.10238972  0.96486743    -0.46200
H2169       H  0.71985905  0.88016328  0.97903904     0.07500
C2170       C  0.79885264  0.92722208  0.83075169    -0.06300
Cl2171     Cl  0.74901755  0.00136359  0.90213962    -0.49300
C2172       C  0.82607534  0.09675807  0.84596531     0.43200
H2173       H  0.65899520  0.92654186  0.87525918     0.07400
N2174       N  0.82296541  0.91840460  0.86926269    -0.46000
C2175       C  0.55144790  0.36273139  0.67732102     0.43100
N2176       N  0.53257330  0.36921100  0.71753169     0.02000
C2177       C  0.54853737  0.14669723  0.79905866    -0.05900
H2178       H  0.54254502  0.09342214  0.71997977     0.07500
C2179       C  0.93140655  0.21626871  0.70942723    -0.06300
Co2180     Co  0.55219969  0.27826275  0.75110549     0.74200
N2181       N  0.53540484  0.17631888  0.72655447    -0.25400
Co2182     Co  0.00217329  0.18024582  0.75491438     0.74100
C2183       C  0.93529757  0.16373666  0.69944027     0.43200
N2184       N  0.95299965  0.33973456  0.72336758     0.01600
N2185       N  0.96925407  0.18274858  0.72601373     0.01700
N2186       N  0.57509557  0.21865914  0.79616611    -0.46300
H2187       H  0.57750693  0.29252768  0.69123983     0.07500
N2188       N  0.55245851  0.21671858  0.72408091     0.02000
N2189       N  0.96939835  0.18538775  0.78376179     0.01700
C2190       C  0.93207301  0.16647883  0.80640226     0.43300
N2191       N  0.97171821  0.37703073  0.72254705    -0.24900
C2192       C  0.56749634  0.33966598  0.80224551    -0.05800
N2193       N  0.53160108  0.38830637  0.69227431    -0.46000
N2194       N  0.95621525  0.14603152  0.79624370    -0.46200
C2195       C  0.55582684  0.38375487  0.81675705     0.43100
N2196       N  0.55235087  0.22422803  0.78199965     0.02000
N2197       N  0.97492375  0.37862929  0.78279784    -0.24900
N2198       N  0.55097501  0.33107968  0.71944864    -0.25400
N2199       N  0.95599154  0.34156488  0.78455362     0.01600
H2200       H  0.98986460  0.43421735  0.81191773     0.07500
H2201       H  0.91414343  0.24819568  0.80017204     0.07500
N2202       N  0.53560098  0.18316279  0.78328343    -0.25500
N2203       N  0.95254298  0.22431215  0.72606188    -0.25100
N2204       N  0.53540380  0.37697405  0.77849271     0.02000
C2205       C  0.57666974  0.15276167  0.70781148     0.43400
C2206       C  0.96804423  0.40583534  0.70011581    -0.06300
N2207       N  0.95393628  0.22827959  0.78403019    -0.25100
H2208       H  0.91334148  0.24139719  0.70754680     0.07500
N2209       N  0.57647130  0.20420203  0.71280786    -0.46300
H2210       H  0.98122922  0.43786351  0.69374011     0.07500
C2211       C  0.95535266  0.37675091  0.82462223     0.43200
C2212       C  0.56386890  0.32488258  0.69572622    -0.05800
Co2213     Co  0.00368942  0.37778028  0.75015588     0.73800
N2214       N  0.93724401  0.33931360  0.70141196    -0.46000
C2215       C  0.57492145  0.17161829  0.80796938     0.43500
N2216       N  0.53617808  0.40529479  0.80091098    -0.46000
Co2217     Co  0.95367052  0.28407725  0.75442366     0.73900
C2218       C  0.93153386  0.22118947  0.79926733    -0.06300
C2219       C  0.54901524  0.13360812  0.71673414    -0.05900
N2220       N  0.55314992  0.33773289  0.77910129    -0.25400
N2221       N  0.95879207  0.14405949  0.71105711    -0.46200
H2222       H  0.54200917  0.10635404  0.80154330     0.07500
C2223       C  0.97526827  0.40411965  0.80668236    -0.06300
Cl2224     Cl  0.00290868  0.27933461  0.75249080    -0.49300
C2225       C  0.94542033  0.38025536  0.68572900     0.43200
H2226       H  0.58255504  0.31137170  0.80925484     0.07400
N2227       N  0.94425306  0.33865435  0.80907122    -0.46000
C2228       C  0.57422197  0.84457075  0.69955224     0.43100
N2229       N  0.53786629  0.82597291  0.72369386     0.02000
C2230       C  0.52619243  0.60920820  0.80786111    -0.05900
H2231       H  0.51415235  0.57748872  0.69410011     0.07500
C2232       C  0.93359322  0.68770777  0.70236147    -0.06300
Co2233     Co  0.55085227  0.72479451  0.75321411     0.74200
N2234       N  0.52818291  0.63342425  0.72321629    -0.25400
Co2235     Co  0.99723461  0.63618313  0.75276524     0.74100
C2236       C  0.94397448  0.64734227  0.68438738     0.43200
N2237       N  0.95384903  0.79783402  0.72618261     0.01600
N2238       N  0.96705672  0.64546343  0.72190879     0.01700
N2239       N  0.55890506  0.67179744  0.80869315    -0.46300
H2240       H  0.59391016  0.76498159  0.70824663     0.07500
N2241       N  0.54868896  0.66731933  0.72320247     0.02000
N2242       N  0.96650010  0.64122109  0.78308829     0.01700
C2243       C  0.94598009  0.63626127  0.82185306     0.43300
N2244       N  0.97273693  0.83530032  0.72499493    -0.24900
C2245       C  0.57806425  0.79262130  0.79269979    -0.05800
N2246       N  0.55039757  0.86502770  0.71025604    -0.46000
N2247       N  0.96468453  0.61239518  0.80549115    -0.46200
C2248       C  0.57845858  0.84853389  0.79694847     0.43100
N2249       N  0.54702967  0.66914252  0.78445959     0.02000
N2250       N  0.97309952  0.83533206  0.78309273    -0.24900
N2251       N  0.55347412  0.78297351  0.72381196    -0.25400
N2252       N  0.95507291  0.79628076  0.78402006     0.01600
H2253       H  0.97131590  0.91266989  0.80138264     0.07500
H2254       H  0.92160989  0.71199151  0.81469525     0.07500
N2255       N  0.52709300  0.63387220  0.78371472    -0.25500
N2256       N  0.94936957  0.68471774  0.72443486    -0.25100
N2257       N  0.53861528  0.82696947  0.78068917     0.02000
C2258       C  0.55350862  0.62652581  0.68497397     0.43400
C2259       C  0.96323487  0.87260934  0.70765315    -0.06300
N2260       N  0.95013289  0.68256351  0.78413143    -0.25100
H2261       H  0.91830957  0.71766969  0.69818032     0.07500
N2262       N  0.56390387  0.66527350  0.70061426    -0.46300
H2263       H  0.97269068  0.91046682  0.70395236     0.07500
C2264       C  0.93656209  0.85211837  0.81132277     0.43200
C2265       C  0.57598937  0.79064300  0.70853578    -0.05800
Co2266     Co  0.50554847  0.83233420  0.75311847     0.73800
N2267       N  0.93231185  0.80671837  0.71080218    -0.46000
C2268       C  0.54680535  0.63517275  0.82493254     0.43500
N2269       N  0.55331810  0.86764826  0.78928262    -0.46000
Co2270     Co  0.95202824  0.73998495  0.75482187     0.73900
C2271       C  0.93592537  0.68223741  0.80764443    -0.06300
C2272       C  0.52962912  0.60548957  0.70030805    -0.05900
N2273       N  0.55368309  0.78341978  0.78128471    -0.25400
N2274       N  0.96506645  0.62260709  0.69767754    -0.46200
H2275       H  0.51074908  0.58092713  0.81381578     0.07500
C2276       C  0.96281563  0.87361357  0.79954769    -0.06300
Cl2277     Cl  0.00149401  0.73363757  0.75340136    -0.49300
C2278       C  0.93642941  0.85196103  0.69791953     0.43200
H2279       H  0.59545311  0.76561038  0.79218063     0.07400
N2280       N  0.93377194  0.80491522  0.80016244    -0.46000
C2281       C  0.85255252  0.89151277  0.83190010    -0.04700
C2282       C  0.86855015  0.92733102  0.81611168    -0.01800
C2283       C  0.89777834  0.91991261  0.81286611     0.03200
C2284       C  0.91093723  0.87518122  0.82392558    -0.04700
C2285       C  0.89518786  0.84151239  0.84098544    -0.01800
C2286       C  0.86633682  0.84884981  0.84444220     0.03200
C2287       C  0.85519536  0.97190315  0.80328797     0.37800
C2288       C  0.90887144  0.79886297  0.85534458     0.37800
C2289       C  0.85071867  0.81193272  0.86118627     0.36200
C2290       C  0.91463937  0.95997587  0.80000351     0.36200
N2291       N  0.83846313  0.78236165  0.87455415    -0.38600
N2292       N  0.92843800  0.99279408  0.79080808    -0.38600
N2293       N  0.91949170  0.76501006  0.86711031    -0.38000
N2294       N  0.84478676  0.00723052  0.79251912    -0.38000
C2295       C  0.60452595  0.87940881  0.79886443    -0.04700
C2296       C  0.60534917  0.92363892  0.81566730    -0.01800
C2297       C  0.63118833  0.94281542  0.82419159     0.03200
C2298       C  0.65616159  0.91618217  0.81670809    -0.04700
C2299       C  0.65552091  0.87951875  0.79569957    -0.01800
C2300       C  0.62967530  0.86171711  0.78629657     0.03200
C2301       C  0.57976160  0.94739673  0.82562888     0.37800
C2302       C  0.68130504  0.85762017  0.78509780     0.37800
C2303       C  0.62950184  0.82543811  0.76376705     0.36200
C2304       C  0.63157145  0.98820849  0.84180912     0.36200
N2305       N  0.63038398  0.79659924  0.74573140    -0.38600
N2306       N  0.63113637  0.02387797  0.85622490    -0.38600
N2307       N  0.70186245  0.84025838  0.77658469    -0.38000
N2308       N  0.55947971  0.96675333  0.83359154    -0.38000
C2309       C  0.90576721  0.13747519  0.81159707    -0.04700
C2310       C  0.90427183  0.10027490  0.83260865    -0.01800
C2311       C  0.87812679  0.08251094  0.84188230     0.03200
C2312       C  0.85314413  0.10553447  0.83174164    -0.04700
C2313       C  0.85470928  0.13877923  0.80894285    -0.01800
C2314       C  0.88083814  0.15312328  0.79826940     0.03200
C2315       C  0.92946598  0.08271465  0.84594347     0.37800
C2316       C  0.82965025  0.16072348  0.79711223     0.37800
C2317       C  0.88160866  0.18480183  0.77368301     0.36200
C2318       C  0.87740816  0.03985534  0.86153214     0.36200
N2319       N  0.88181920  0.21019309  0.75415598    -0.38600
N2320       N  0.87716099  0.00554203  0.87701306    -0.38600
N2321       N  0.80987586  0.17858935  0.78746514    -0.38000
N2322       N  0.94938070  0.06871302  0.85688040    -0.38000
C2323       C  0.60253412  0.15149957  0.81720797    -0.04700
C2324       C  0.61814202  0.18509753  0.83412132    -0.01800
C2325       C  0.64710829  0.17861577  0.83663348     0.03200
C2326       C  0.66079021  0.13525189  0.82501353    -0.04700
C2327       C  0.64582541  0.10283356  0.80714269    -0.01800
C2328       C  0.61680570  0.11105137  0.80311671     0.03200
C2329       C  0.60438689  0.22694414  0.84907754     0.37800
C2330       C  0.66046746  0.06149208  0.79293703     0.37800
C2331       C  0.60181672  0.07915667  0.78399116     0.36200
C2332       C  0.66348274  0.21669167  0.85127038     0.36200
N2333       N  0.58939544  0.05436647  0.76872404    -0.38600
N2334       N  0.67740950  0.24658731  0.86229387    -0.38600
N2335       N  0.67265961  0.02889952  0.78166962    -0.38000
N2336       N  0.59355661  0.26017111  0.86117487    -0.38000
C2337       C  0.91226151  0.87470166  0.68389779    -0.04700
C2338       C  0.89476471  0.90998372  0.69798473    -0.01800
C2339       C  0.86590789  0.91222295  0.69247367     0.03200
C2340       C  0.85451121  0.88057449  0.67192818    -0.04700
C2341       C  0.87238874  0.84573746  0.65760716    -0.01800
C2342       C  0.90097600  0.84357958  0.66320849     0.03200
C2343       C  0.90644756  0.94227165  0.71896461     0.37800
C2344       C  0.86135580  0.81228078  0.63658680     0.37800
C2345       C  0.91878782  0.80672559  0.64868956     0.36200
C2346       C  0.84791763  0.94514095  0.70879797     0.36200
N2347       N  0.93307619  0.77734590  0.63732872    -0.38600
N2348       N  0.83331196  0.97004799  0.72237091    -0.38600
N2349       N  0.85229501  0.78719334  0.61933534    -0.38000
N2350       N  0.91624518  0.96817954  0.73545684    -0.38000
C2351       C  0.65791408  0.88609440  0.68112729    -0.04700
C2352       C  0.64401785  0.91472482  0.70176314    -0.01800
C2353       C  0.61530769  0.90514179  0.70732454     0.03200
C2354       C  0.59974178  0.87238197  0.69005030    -0.04700
C2355       C  0.61299991  0.85094059  0.66725179    -0.01800
C2356       C  0.64208763  0.85178808  0.66508039     0.03200
C2357       C  0.65865658  0.95546420  0.71601538     0.37800
C2358       C  0.59623909  0.83074941  0.64541970     0.37800
C2359       C  0.65634451  0.81692866  0.64651830     0.36200
C2360       C  0.60161368  0.92913352  0.73032518     0.36200
N2361       N  0.66940073  0.78943242  0.63284367    -0.38600
N2362       N  0.59013944  0.94777220  0.74860785    -0.38600
N2363       N  0.58229203  0.81641556  0.62796870    -0.38000
N2364       N  0.67049102  0.98871867  0.72679916    -0.38000
C2365       C  0.85540284  0.12024322  0.67000686    -0.04700
C2366       C  0.86315813  0.10636761  0.69667285    -0.01800
C2367       C  0.89118564  0.11217834  0.70508456     0.03200
C2368       C  0.91133414  0.13515795  0.68765353    -0.04700
C2369       C  0.90342048  0.14969476  0.66128367    -0.01800
C2370       C  0.87556942  0.14497113  0.65301084     0.03200
C2371       C  0.84197680  0.09132137  0.71621271     0.37800
C2372       C  0.92420622  0.16947421  0.64238809     0.37800
C2373       C  0.86736827  0.16909986  0.62751104     0.36200
C2374       C  0.89943022  0.09449945  0.73174139     0.36200
N2375       N  0.86075599  0.18837456  0.60725173    -0.38600
N2376       N  0.90616428  0.07967865  0.75289777    -0.38600
N2377       N  0.94070453  0.18395464  0.62688434    -0.38000
N2378       N  0.82484710  0.08130624  0.73203756    -0.38000
C2379       C  0.65783052  0.09458498  0.68578391    -0.04700
C2380       C  0.65510598  0.12951729  0.70757129    -0.01800
C2381       C  0.62833993  0.14431803  0.71699229     0.03200
C2382       C  0.60390044  0.12451969  0.70442999    -0.04700
C2383       C  0.60676648  0.08338028  0.68574166    -0.01800
C2384       C  0.63353996  0.06826998  0.67647123     0.03200
C2385       C  0.67977831  0.15241807  0.71933920     0.37800
C2386       C  0.58220181  0.05859804  0.67477808     0.37800
C2387       C  0.63564191  0.02637198  0.65671957     0.36200
C2388       C  0.62628975  0.18093956  0.73935638     0.36200
N2389       N  0.63685274  0.99332794  0.64073389    -0.38600
N2390       N  0.62511024  0.21039052  0.75712093    -0.38600
N2391       N  0.56274551  0.03839437  0.66599374    -0.38000
N2392       N  0.69952410  0.17037311  0.72877874    -0.38000
C2393       C  0.80306058  0.68506817  0.55788351    -0.04700
C2394       C  0.78054246  0.71350392  0.56925876    -0.01800
C2395       C  0.77974905  0.76930409  0.56779512     0.03200
C2396       C  0.80131396  0.79769486  0.55463775    -0.04700
C2397       C  0.82488022  0.76962377  0.54537595    -0.01800
C2398       C  0.82563480  0.71386660  0.54659400     0.03200
C2399       C  0.75886501  0.68537046  0.58380157     0.37800
C2400       C  0.84895986  0.79855943  0.53578518     0.37800
C2401       C  0.84995213  0.68641321  0.53644788     0.36200
C2402       C  0.75799527  0.79778657  0.58199003     0.36200
N2403       N  0.86960326  0.66500598  0.52845362    -0.38600
N2404       N  0.74101384  0.82061034  0.59385615    -0.38600
N2405       N  0.86826413  0.82220639  0.52878691    -0.38000
N2406       N  0.74168845  0.66295232  0.59563517    -0.38000
C2407       C  0.81203303  0.29535946  0.55728443    -0.04700
C2408       C  0.79192644  0.26551015  0.57145121    -0.01800
C2409       C  0.79145609  0.21020864  0.56892993     0.03200
C2410       C  0.81154533  0.18412829  0.55279133    -0.04700
C2411       C  0.83419556  0.21316488  0.54239211    -0.01800
C2412       C  0.83417633  0.26871080  0.54409699     0.03200
C2413       C  0.77390402  0.29140852  0.59082632     0.37800
C2414       C  0.85842088  0.18563990  0.53208207     0.37800
C2415       C  0.85755417  0.29831236  0.53349195     0.36200
C2416       C  0.77205595  0.17887308  0.58468677     0.36200
N2417       N  0.87640289  0.32220400  0.02557785    -0.38600
N2418       N  0.75786545  0.15088411  0.59705369    -0.38600
N2419       N  0.87814324  0.16349446  0.52479220    -0.38000
N2420       N  0.76063401  0.31261629  0.60710165    -0.38000
C2421       C  0.80307783  0.69030783  0.95728057    -0.04700
C2422       C  0.82670191  0.72172492  0.96301567    -0.01800
C2423       C  0.82476384  0.77731470  0.96288001     0.03200
C2424       C  0.79946754  0.80241018  0.95652229    -0.04700
C2425       C  0.77744121  0.77135845  0.94691146    -0.01800
C2426       C  0.77880300  0.71579408  0.94810825     0.03200
C2427       C  0.85372377  0.69786218  0.96692384     0.37800
C2428       C  0.75631279  0.79723473  0.93111508     0.37800
C2429       C  0.75692786  0.68440028  0.93658030     0.36200
C2430       C  0.84952414  0.80881973  0.96657700     0.36200
N2431       N  0.74043693  0.65765567  0.92686310    -0.38600
N2432       N  0.86938669  0.83396475  0.96875685    -0.38600
N2433       N  0.74153958  0.82115789  0.91744508    -0.38000
N2434       N  0.87586940  0.68072529  0.96938509    -0.38000
C2435       C  0.80207246  0.18889450  0.95447896    -0.04700
C2436       C  0.82780793  0.21286054  0.96041505    -0.01800
C2437       C  0.83057935  0.26826126  0.95952543     0.03200
C2438       C  0.80763261  0.30047127  0.95252230    -0.04700
C2439       C  0.78348448  0.27609592  0.94258285    -0.01800
C2440       C  0.78111209  0.22055736  0.94275184     0.03200
C2441       C  0.85219646  0.18024501  0.96449096     0.37800
C2442       C  0.76271005  0.30805890  0.92918973     0.37800
C2443       C  0.75954852  0.19569694  0.92705155     0.36200
C2444       C  0.85756927  0.29170990  0.96395600     0.36200
N2445       N  0.74302693  0.17557707  0.91375478    -0.38600
N2446       N  0.87920883  0.31062121  0.96671930    -0.38600
N2447       N  0.74659031  0.33389155  0.91799815    -0.38000
N2448       N  0.87173407  0.15394756  0.96668596    -0.38000
C2449       C  0.94172483  0.62406742  0.85096218    -0.04700
C2450       C  0.92315389  0.58411306  0.85818145    -0.01800
C2451       C  0.91736103  0.57365575  0.88562567     0.03200
C2452       C  0.92885931  0.60557346  0.90652904    -0.04700
C2453       C  0.94891261  0.64355964  0.89921721    -0.01800
C2454       C  0.95530769  0.65287178  0.87143452     0.03200
C2455       C  0.90961711  0.55382359  0.83713717     0.37800
C2456       C  0.96231526  0.67384793  0.92012784     0.37800
C2457       C  0.97498481  0.69343706  0.86375797     0.36200
C2458       C  0.89913308  0.52971148  0.89171256     0.36200
N2459       N  0.99037605  0.72618770  0.85738101    -0.38600
N2460       N  0.88412655  0.49510790  0.89581179    -0.38600
N2461       N  0.97314536  0.69769750  0.93690602    -0.38000
N2462       N  0.89897392  0.52934740  0.82048573    -0.38000
C2463       C  0.92077655  0.63925424  0.59929878    -0.04700
C2464       C  0.94918845  0.64058239  0.60620539    -0.01800
C2465       C  0.95691192  0.64537231  0.63394350     0.03200
C2466       C  0.93650600  0.64411589  0.65488403    -0.04700
C2467       C  0.90837515  0.64994895  0.64736413    -0.01800
C2468       C  0.90116017  0.65293134  0.61983107     0.03200
C2469       C  0.97010892  0.64006992  0.58493032     0.37800
C2470       C  0.88642840  0.65231769  0.66777281     0.37800
C2471       C  0.87298914  0.66819700  0.61273045     0.36200
C2472       C  0.98481088  0.66038085  0.64077985     0.36200
N2473       N  0.85033788  0.67869204  0.60704582    -0.38600
N2474       N  0.50632540  0.67628933  0.64682789    -0.38600
N2475       N  0.86880160  0.65437537  0.68388608    -0.38000
N2476       N  0.48672042  0.64043083  0.56779380    -0.38000
C2477       C  0.94143395  0.39131818  0.91247364    -0.04700
C2478       C  0.93864460  0.34237283  0.89974922    -0.01800
C2479       C  0.94495906  0.33650340  0.87173475     0.03200
C2480       C  0.95220964  0.38072808  0.85532736    -0.04700
C2481       C  0.95702506  0.42882835  0.86893543    -0.01800
C2482       C  0.95304860  0.43304835  0.89738214     0.03200
C2483       C  0.92992990  0.29737060  0.91583225     0.37800
C2484       C  0.96448905  0.47533523  0.85373914     0.37800
C2485       C  0.96099711  0.48049273  0.91124141     0.36200
C2486       C  0.94564814  0.28385763  0.86101335     0.36200
N2487       N  0.96809744  0.51785014  0.92240710    -0.38600
N2488       N  0.94684246  0.24037262  0.85452342    -0.38600
N2489       N  0.97030919  0.51246860  0.84140107    -0.38000
N2490       N  0.92338065  0.26099864  0.92848786    -0.38000
C2491       C  0.93697217  0.39251097  0.59857379    -0.04700
C2492       C  0.94358048  0.34383663  0.61048307    -0.01800
C2493       C  0.94768659  0.34025103  0.63888060     0.03200
C2494       C  0.94121374  0.38355294  0.65584655    -0.04700
C2495       C  0.93539881  0.43250719  0.64365424    -0.01800
C2496       C  0.93606535  0.43721056  0.61519584     0.03200
C2497       C  0.94757671  0.29860643  0.59324249     0.37800
C2498       C  0.93114435  0.47880014  0.66024006     0.37800
C2499       C  0.94014127  0.48761143  0.60266956     0.36200
C2500       C  0.96159796  0.29480849  0.65022787     0.36200
N2501       N  0.94579107  0.52660205  0.59208653    -0.38600
N2502       N  0.97374036  0.25994215  0.65957001    -0.38600
N2503       N  0.92787044  0.51563677  0.67355004    -0.38000
N2504       N  0.95097452  0.26289518  0.57917023    -0.38000
C2505       C  0.67985618  0.81020862  0.94625202    -0.04700
C2506       C  0.67055154  0.78471914  0.97019794    -0.01800
C2507       C  0.66946091  0.72903584  0.97160472     0.03200
C2508       C  0.67823256  0.69836758  0.94931122    -0.04700
C2509       C  0.68231291  0.72357443  0.92415964    -0.01800
C2510       C  0.68285614  0.77910663  0.92248547     0.03200
C2511       C  0.65879910  0.81589295  0.49193792     0.37800
C2512       C  0.68557488  0.69223204  0.89982548     0.37800
C2513       C  0.68710215  0.80273163  0.89605878     0.36200
C2514       C  0.65579556  0.70312412  0.99426851     0.36200
N2515       N  0.69104489  0.81830411  0.87431158    -0.38600
N2516       N  0.64394048  0.68150711  0.51150410    -0.38600
N2517       N  0.68795623  0.66733607  0.88036997    -0.38000
N2518       N  0.64847713  0.84088156  0.50880202    -0.38000
C2519       C  0.69334451  0.19488488  0.95381176    -0.04700
C2520       C  0.67428703  0.22316528  0.93734626    -0.01800
C2521       C  0.67525744  0.27892530  0.93539136     0.03200
C2522       C  0.69284029  0.30888799  0.95245197    -0.04700
C2523       C  0.71059667  0.28021608  0.97007058    -0.01800
C2524       C  0.71153394  0.22476676  0.97003096     0.03200
C2525       C  0.65237204  0.19551248  0.92330430     0.37800
C2526       C  0.72776916  0.30560081  0.98990890     0.37800
C2527       C  0.73183044  0.20046131  0.98757553     0.36200
C2528       C  0.65831545  0.30453934  0.91504066     0.36200
N2529       N  0.74891198  0.18628039  0.00222942    -0.38600
N2530       N  0.64499726  0.32365566  0.89820951    -0.38600
N2531       N  0.74165716  0.32097975  0.00709015    -0.38000
N2532       N  0.63452741  0.17390177  0.91243824    -0.38000
C2533       C  0.69185081  0.80950215  0.55176036    -0.04700
C2534       C  0.71000800  0.77766733  0.53615670    -0.01800
C2535       C  0.70907687  0.72214002  0.53798213     0.03200
C2536       C  0.68970951  0.69606825  0.55529541    -0.04700
C2537       C  0.67160268  0.72835717  0.57089623    -0.01800
C2538       C  0.67075502  0.78343310  0.56681616     0.03200
C2539       C  0.72924451  0.79969675  0.51657686     0.37800
C2540       C  0.65574408  0.70678687  0.59332104     0.37800
C2541       C  0.64635517  0.81227937  0.57582869     0.36200
C2542       C  0.72949164  0.69366124  0.52207449     0.36200
N2543       N  0.62683586  0.83579671  0.58248634    -0.38600
N2544       N  0.74679950  0.67664369  0.50825646    -0.38600
N2545       N  0.64388698  0.69031434  0.61202299    -0.38000
N2546       N  0.74534495  0.80974173  0.49982443    -0.38000
C2547       C  0.69398373  0.19539736  0.55647180    -0.04700
C2548       C  0.69891054  0.22730298  0.57956876    -0.01800
C2549       C  0.69593876  0.28263540  0.57808389     0.03200
C2550       C  0.68765137  0.30716666  0.55381306    -0.04700
C2551       C  0.67722682  0.27499840  0.53295607    -0.01800
C2552       C  0.68050815  0.21943598  0.53420596     0.03200
C2553       C  0.70438863  0.20389872  0.60581470     0.37800
C2554       C  0.65973158  0.29863412  0.51240948     0.37800
C2555       C  0.66627420  0.18663101  0.51490149     0.36200
C2556       C  0.69893218  0.31406022  0.60234330     0.36200
N2557       N  0.65408942  0.16055763  0.00000051    -0.38600
N2558       N  0.70090732  0.33873854  0.62187234    -0.38600
N2559       N  0.64513603  0.31778219  0.99662010    -0.38000
N2560       N  0.70817548  0.18674131  0.62724472    -0.38000
C2561       C  0.55661930  0.62417005  0.91307459    -0.04700
C2562       C  0.56131129  0.67216857  0.89954856    -0.01800
C2563       C  0.55671858  0.67698585  0.87124921     0.03200
C2564       C  0.54888897  0.63258508  0.85564259    -0.04700
C2565       C  0.54226388  0.58564868  0.86996306    -0.01800
C2566       C  0.54477522  0.58257760  0.89850061     0.03200
C2567       C  0.57136802  0.71653752  0.91495147     0.37800
C2568       C  0.53474566  0.53881534  0.85543620     0.37800
C2569       C  0.53615575  0.53563168  0.91290569     0.36200
C2570       C  0.55952222  0.72833633  0.85888734     0.36200
N2571       N  0.52880053  0.49878203  0.92468657    -0.38600
N2572       N  0.56146628  0.77034323  0.85008923    -0.38600
N2573       N  0.02882830  0.50149675  0.84359986    -0.38000
N2574       N  0.57926076  0.75188026  0.92734411    -0.38000
C2575       C  0.55759526  0.61803341  0.59677596    -0.04700
C2576       C  0.56966233  0.66061066  0.61050373    -0.01800
C2577       C  0.57137170  0.66080088  0.63916229     0.03200
C2578       C  0.55829801  0.62101315  0.65476593    -0.04700
C2579       C  0.54689884  0.57791018  0.64088100    -0.01800
C2580       C  0.54479488  0.57817167  0.61230758     0.03200
C2581       C  0.58159245  0.70294497  0.59453578     0.37800
C2582       C  0.54273787  0.52969394  0.65578427     0.37800
C2583       C  0.53001234  0.53682099  0.59875741     0.36200
C2584       C  0.59065871  0.69592899  0.65200367     0.36200
N2585       N  0.51743988  0.50509423  0.58761590    -0.38600
N2586       N  0.60737427  0.72131775  0.66231577    -0.38600
N2587       N  0.54126005  0.49228437  0.66904015    -0.38000
N2588       N  0.59067165  0.73616666  0.58108949    -0.38000
C2589       C  0.56598361  0.40481715  0.90277313    -0.04700
C2590       C  0.54658060  0.36787837  0.89334525    -0.01800
C2591       C  0.54253060  0.36156573  0.86510099     0.03200
C2592       C  0.55779140  0.39237914  0.84624501    -0.04700
C2593       C  0.57594643  0.43089926  0.85542563    -0.01800
C2594       C  0.57944173  0.43848176  0.88334855     0.03200
C2595       C  0.53198502  0.33456278  0.91261591     0.37800
C2596       C  0.59142127  0.46257458  0.83581226     0.37800
C2597       C  0.59875349  0.47908421  0.89113713     0.36200
C2598       C  0.52397288  0.32134233  0.85531071     0.36200
N2599       N  0.61563878  0.50982413  0.89581422    -0.38600
N2600       N  0.50953914  0.28883660  0.84721917    -0.38600
N2601       N  0.60357556  0.48774684  0.82013434    -0.38000
N2602       N  0.52036333  0.30811268  0.92811138    -0.38000
C2603       C  0.55504793  0.36146151  0.64674028    -0.04700
C2604       C  0.57928650  0.33789652  0.63506500    -0.01800
C2605       C  0.58166487  0.33147237  0.60679946     0.03200
C2606       C  0.56280329  0.35651625  0.58934342    -0.04700
C2607       C  0.53756954  0.37483206  0.60019904    -0.01800
C2608       C  0.53415397  0.37959594  0.62866597     0.03200
C2609       C  0.60386449  0.32688739  0.65103374     0.37800
C2610       C  0.51535156  0.38940379  0.58196836     0.37800
C2611       C  0.51145338  0.41134625  0.63824912     0.36200
C2612       C  0.60505961  0.30280429  0.59518339     0.36200
N2613       N  0.99442096  0.44102702  0.64444399    -0.38600
N2614       N  0.62345059  0.27947158  0.58582922    -0.38600
N2615       N  0.99752782  0.40042258  0.56735658    -0.38000
N2616       N  0.62379693  0.31839799  0.66334288    -0.38000
loop_ 
_geom_bond_atom_site_label_1 
_geom_bond_atom_site_label_2 
_geom_bond_distance 
_geom_bond_site_symmetry_2 
_ccdc_geom_bond_type 
C1           N19   1.357       .  A
C1           C38   1.452       .  S
C1          C588   1.503       .  S
N2           N19   1.332       .  A
N2           N24   1.317       .  A
N2         Co693   2.119       .  S
C3           N28   1.357       .  A
C3           C41   1.483       .  S
C3           H48   1.081       .  S
H4           C45   1.081       .  S
C5           N29   1.323       .  A
C5            C9   1.440       .  S
C5           H34   1.078       .  S
Co6          N24   2.083       .  S
Co6          N14   2.074       .  S
Co6          N46   2.086       .  S
Co6          N22   2.061       .  S
Co6         Cl50   2.382       .  S
N7           C45   1.353       .  A
N7           N14   1.322       .  A
N7           Co8   2.107       .  S
Co8          N28   2.134       .  S
Co8         N665   2.130   1_554  S
Co8         N669   2.100   1_554  S
Co8         Cl50   2.537       .  S
C9           N47   1.368       .  A
C9          C627   1.503       .  S
N10          N17   1.306       .  A
N10          N40   1.329       .  A
N10         Co43   2.092       .  S
N11          N29   1.314       .  A
N11          N47   1.334       .  A
N11        Co662   2.130       .  S
N12          C41   1.336       .  A
N12          N22   1.313       .  A
H13          C38   1.078       .  S
N14          N35   1.312       .  A
N15          N33   1.320       .  A
N15          N20   1.332       .  A
N15        Co662   2.100       .  S
C16          N20   1.362       .  A
C16          C44   1.447       .  S
C16         C599   1.493       .  S
N17          C32   1.334       .  A
N17         Co39   2.068       .  S
C18          N46   1.339       .  A
C18          C21   1.477       .  S
C18          H52   1.072       .  S
C21          N42   1.357       .  A
C21         C574   1.525       .  S
N22          N28   1.323       .  A
N23          C49   1.343       .  A
N23          N25   1.314       .  A
N23         Co39   2.101       .  S
N24          C38   1.344       .  A
N25          N53   1.328       .  A
N25         Co43   2.074       .  S
H26          C49   1.056       .  S
H27          C44   1.080       .  S
N29         Co43   2.050       .  S
N30          N42   1.327       .  A
N30          N46   1.311       .  A
N30        Co693   2.091       .  S
C31          N35   1.340       .  A
C31          C45   1.479       .  S
C31         C644   1.487       .  S
C32          C51   1.476       .  S
C32          H36   1.071       .  S
N33          C44   1.335       .  A
N33         Co43   2.104       .  S
C37          N53   1.345       .  A
C37          C49   1.463       .  S
C37         C546   1.499       .  S
Co39        N656   2.119       .  S
Co39        N684   2.091       .  S
Co39       Cl704   2.499       .  S
N40          C51   1.359       .  A
C41         C613   1.489       .  S
Co43       Cl704   2.365       .  S
Cl50       Co693   2.499       .  S
Cl50       Co697   2.365   1_554  S
C51         C560   1.529       .  S
C54          N72   1.367       .  A
C54          C91   1.447       .  S
C54         C529   1.491       .  S
N55          N72   1.333       .  A
N55          N77   1.320       .  A
N55         Co92   2.140       .  S
C56          N81   1.343       .  A
C56          C94   1.466       .  S
C56         H101   1.068       .  S
H57          C98   1.069       .  S
C58          N82   1.343       .  A
C58          C62   1.461       .  S
C58          H87   1.080       .  S
Co59         N77   2.054       .  S
Co59         N67   2.072       .  S
Co59         N99   2.026       .  S
Co59         N75   2.097       .  S
Co59       Cl103   2.380       .  S
N60          C98   1.342       .  A
N60          N67   1.314       .  A
N60        Co715   2.105       .  S
Co61         N64   2.112       .  S
Co61         N68   2.121       .  S
Co61        N714   2.105       .  S
Co61        N735   2.095       .  S
Co61       Cl757   2.498       .  S
C62         N100   1.355       .  A
C62         C476   1.503       .  S
N63          N70   1.325       .  A
N63          N93   1.321       .  A
N63         Co96   2.095       .  S
N64          N82   1.317       .  A
N64         N100   1.330       .  A
N65          C94   1.354       .  A
N65          N75   1.331       .  A
H66          C91   1.082       .  S
N67          N88   1.328       .  A
N68          N86   1.315       .  A
N68          N73   1.334       .  A
C69          N73   1.359       .  A
C69          C97   1.451       .  S
C69         C459   1.507       .  S
N70          C85   1.354       .  A
N70        Co746   2.125       .  S
C71          N99   1.310       .  A
C71          C74   1.437       .  S
C71         H105   1.080       .  S
C74          N95   1.378       .  A
C74         C501   1.512       .  S
N75          N81   1.312       .  A
N76         C102   1.359       .  A
N76          N78   1.321       .  A
N76        Co746   2.130       .  S
N77          C91   1.329       .  A
N78         N106   1.311       .  A
N78         Co96   2.064       .  S
H79         C102   1.081       .  S
H80          C97   1.078       .  S
N81        Co715   2.095       .  S
N82         Co96   2.082       .  S
N83          N95   1.345       .  A
N83          N99   1.318       .  A
N83         Co92   2.156       .  S
C84          N88   1.349       .  A
C84          C98   1.463       .  S
C84         C445   1.498       .  S
C85         C104   1.479       .  S
C85          H89   1.081       .  S
N86          C97   1.343       .  A
N86         Co96   2.079       .  S
C90         N106   1.331       .  A
C90         C102   1.488       .  S
C90         C490   1.503       .  S
Co92        N724   2.125   1_554  S
Co92        N730   2.130   1_554  S
Co92       Cl103   2.535       .  S
N93         C104   1.343       .  A
C94         C431   1.513       .  S
Co96       Cl757   2.383       .  S
Cl103      Co715   2.498       .  S
Cl103      Co750   2.383   1_554  S
C104        C515   1.498       .  S
C107        N125   1.370       .  A
C107        C144   1.450       .  S
C107        C585   1.515       .  S
N108        N125   1.339       .  A
N108        N130   1.316       .  A
N108       Co145   2.151   1_545  S
C109        N134   1.361       .  A
C109        C147   1.483       .  S
C109        H154   1.081       .  S
H110        C151   1.081       .  S
C111        N135   1.320       .  A
C111        C115   1.442       .  S
C111        H140   1.081       .  S
Co112       N130   2.064       .  S
Co112       N120   2.063       .  S
Co112       N152   2.073   1_545  S
Co112       N128   2.061   1_545  S
Co112      Cl156   2.367   1_545  S
N113        C151   1.356       .  A
N113        N120   1.325       .  A
N113       Co114   2.119   1_545  S
Co114       N117   2.144   1_565  S
Co114       N134   2.123       .  S
Co114       N121   2.130       .  S
Co114      Cl156   2.535       .  S
C115        N153   1.371       .  A
C115        C403   1.506       .  S
N116        N123   1.312       .  A
N116        N146   1.326       .  A
N116       Co149   2.068   1_545  S
N117        N135   1.322       .  A
N117        N153   1.338       .  A
N118        C147   1.332       .  A
N118        N128   1.309       .  A
H119        C144   1.080       .  S
N120        N141   1.314       .  A
N121        N139   1.319       .  A
N121        N126   1.335       .  A
C122        N126   1.367       .  A
C122        C150   1.436       .  S
C122        C378   1.494       .  S
N123        C138   1.339       .  A
N123       Co145   2.092   1_545  S
C124        N152   1.337       .  A
C124        C127   1.466       .  S
C124        H158   1.076       .  S
C127        N148   1.361       .  A
C127        C571   1.521       .  S
N128        N134   1.324       .  A
N129        C155   1.344       .  A
N129        N131   1.314       .  A
N129       Co145   2.118       .  S
N130        C144   1.338       .  A
N131        N159   1.329       .  A
N131       Co149   2.069       .  S
H132        C155   1.065       .  S
H133        C150   1.082       .  S
N135       Co149   2.050   1_545  S
N136        N148   1.334       .  A
N136        N152   1.312       .  A
N136       Co145   2.114       .  S
C137        N141   1.333       .  A
C137        C151   1.480       .  S
C137        C417   1.500       .  S
C138        C157   1.471       .  S
C138        H142   1.070       .  S
N139        C150   1.318       .  A
N139       Co149   2.030       .  S
C143        N159   1.348       .  A
C143        C155   1.471       .  S
C143        C434   1.509       .  S
Co145      Cl156   2.507       .  S
N146        C157   1.349       .  A
C147        C389   1.494       .  S
Co149      Cl156   2.377       .  S
C157        C448   1.495       .  S
C160        N178   1.364       .  A
C160        C197   1.439       .  S
C160        C364   1.494       .  S
N161        N178   1.337       .  A
N161        N183   1.321       .  A
N161       Co198   2.128       .  S
C162        N187   1.347       .  A
C162        C200   1.477       .  S
C162        H207   1.069       .  S
H163        C204   1.073       .  S
C164        N188   1.338       .  A
C164        C168   1.446       .  S
C164        H193   1.080       .  S
Co165       N183   2.056       .  S
Co165       N173   2.075       .  S
Co165       N205   2.043   1_545  S
Co165       N181   2.081   1_545  S
Co165      Cl209   2.371       .  S
N166        C204   1.337       .  A
N166        N173   1.309       .  A
N166       Co167   2.082   1_545  S
Co167       N170   2.139   1_565  S
Co167       N187   2.120       .  S
Co167       N174   2.115       .  S
Co167      Cl209   2.492   1_565  S
C168        N206   1.364       .  A
C168        C473   1.504       .  S
N169        N176   1.323       .  A
N169        N199   1.314       .  A
N169       Co202   2.069   1_545  S
N170        N188   1.316       .  A
N170        N206   1.334       .  A
N171        C200   1.350       .  A
N171        N181   1.329       .  A
H172        C197   1.081       .  S
N173        N194   1.325       .  A
N174        N192   1.316       .  A
N174        N179   1.330       .  A
C175        N179   1.360       .  A
C175        C203   1.455       .  S
C175        C462   1.501       .  S
N176        C191   1.346       .  A
N176       Co198   2.087       .  S
C177        N205   1.320       .  A
C177        C180   1.438       .  S
C177        H211   1.081       .  S
C180        N201   1.358       .  A
C180        C336   1.480       .  S
N181        N187   1.315       .  A
N182        C208   1.359       .  A
N182        N184   1.325       .  A
N182       Co198   2.134   1_565  S
N183        C197   1.325       .  A
N184        N212   1.314       .  A
N184       Co202   2.055       .  S
H185        C208   1.081       .  S
H186        C203   1.081       .  S
N188       Co202   2.054   1_545  S
N189        N201   1.330       .  A
N189        N205   1.321       .  A
N189       Co198   2.099   1_565  S
C190        N194   1.354       .  A
C190        C204   1.479       .  S
C190        C557   1.523       .  S
C191        C210   1.472       .  S
C191        H195   1.081       .  S
N192        C203   1.341       .  A
N192       Co202   2.071       .  S
C196        N212   1.335       .  A
C196        C208   1.482       .  S
C196        C319   1.494       .  S
Co198      Cl209   2.526       .  S
N199        C210   1.336       .  A
C200        C543   1.514       .  S
Co202      Cl209   2.389   1_565  S
C210        C350   1.489       .  S
C213        N231   1.366       .  A
C213        C250   1.451       .  S
C213        C641   1.517       .  S
N214        N231   1.336       .  A
N214        N236   1.315       .  A
N214      Co1559   2.127       .  S
C215        N240   1.361       .  A
C215        C253   1.491       .  S
C215        H260   1.081       .  S
H216        C257   1.081       .  S
C217        N241   1.328       .  A
C217        C221   1.439       .  S
C217        H246   1.081       .  S
Co218       N236   2.057       .  S
Co218       N226   2.062       .  S
Co218       N258   2.055       .  S
Co218       N234   2.048       .  S
Co218     Cl1570   2.369       .  S
N219        C257   1.357       .  A
N219        N226   1.322       .  A
N219      Co1528   2.116       .  S
Co220       N223   2.139       .  S
Co220       N227   2.117       .  S
Co220      N1527   2.116       .  S
Co220      N1548   2.141       .  S
Co220      Cl262   2.527       .  S
C221        N259   1.364       .  A
C221        C406   1.489       .  S
N222        N229   1.311       .  A
N222        N252   1.327       .  A
N222       Co255   2.082       .  S
N223        N241   1.327       .  A
N223        N259   1.336       .  A
N224        C253   1.329       .  A
N224        N234   1.310       .  A
H225        C250   1.074       .  S
N226        N247   1.315       .  A
N227        N245   1.319       .  A
N227        N232   1.333       .  A
C228        N232   1.363       .  A
C228        C256   1.436       .  S
C228        C347   1.486       .  S
N229        C244   1.337       .  A
N229       Co251   2.062       .  S
C230        N258   1.340       .  A
C230        C233   1.444       .  S
C230        H264   1.078       .  S
C233        N254   1.345       .  A
C233        C630   1.476       .  S
N234        N240   1.323       .  A
N235        C261   1.348       .  A
N235        N237   1.315       .  A
N235       Co251   2.112       .  S
N236        C250   1.329       .  A
N237        N265   1.331       .  A
N237       Co255   2.095       .  S
H238        C261   1.075       .  S
H239        C256   1.081       .  S
N240      Co1528   2.141       .  S
N241       Co255   2.074       .  S
N242        N254   1.324       .  A
N242        N258   1.312       .  A
N242      Co1559   2.077       .  S
C243        N247   1.334       .  A
C243        C257   1.480       .  S
C243        C420   1.500       .  S
C244        C263   1.461       .  S
C244        H248   1.078       .  S
N245        C256   1.320       .  A
N245       Co255   2.032       .  S
C249        N265   1.354       .  A
C249        C261   1.472       .  S
C249        C518   1.524       .  S
Co251      N1522   2.127       .  S
Co251      N1550   2.077       .  S
Co251      Cl262   2.510       .  S
N252        C263   1.352       .  A
C253        C361   1.495       .  S
Co255      Cl262   2.370       .  S
Cl262     Co1526   2.369       .  S
C263        C532   1.491       .  S
C266        N284   1.360       .  A
C266        C303   1.444       .  S
C266        C392   1.489       .  S
N267        N284   1.335       .  A
N267        N289   1.326       .  A
N267       Co304   2.122       .  S
C268        N293   1.344       .  A
C268        C306   1.467       .  S
C268        H313   1.074       .  S
H269        C310   1.080       .  S
C270        N294   1.334       .  A
C270        C274   1.445       .  S
C270        H299   1.078       .  S
Co271       N289   2.071       .  S
Co271       N279   2.090       .  S
Co271       N311   2.047       .  S
Co271       N287   2.096       .  S
Co271     Cl1623   2.382       .  S
N272        C310   1.339       .  A
N272        N279   1.312       .  A
N272      Co1581   2.074   1_455  S
Co273       N276   2.123       .  S
Co273       N280   2.096       .  S
Co273      N1580   2.074       .  S
Co273      N1601   2.105       .  S
Co273      Cl315   2.492       .  S
C274        N312   1.363       .  A
C274        C504   1.504       .  S
N275        N282   1.320       .  A
N275        N305   1.307       .  A
N275       Co308   2.037       .  S
N276        N294   1.316       .  A
N276        N312   1.336       .  A
N277        C306   1.355       .  A
N277        N287   1.331       .  A
H278        C303   1.080       .  S
N279        N300   1.328       .  A
N280        N298   1.313       .  A
N280        N285   1.326       .  A
C281        N285   1.348       .  A
C281        C309   1.446       .  S
C281        C487   1.480       .  S
N282        C297   1.356       .  A
N282      Co1612   2.110       .  S
C283        N311   1.327       .  A
C283        C286   1.441       .  S
C283        H317   1.081       .  S
C286        N307   1.357       .  A
C286        C333   1.485       .  S
N287        N293   1.316       .  A
N288        C314   1.361       .  A
N288        N290   1.322       .  A
N288      Co1612   2.140       .  S
N289        C303   1.327       .  A
N290        N318   1.310       .  A
N290       Co308   2.044       .  S
H291        C314   1.081       .  S
H292        C309   1.079       .  S
N293      Co1581   2.105   1_455  S
N294       Co308   2.066       .  S
N295        N307   1.329       .  A
N295        N311   1.323       .  A
N295       Co304   2.104       .  S
C296        N300   1.355       .  A
C296        C310   1.470       .  S
C296        C616   1.512       .  S
C297        C316   1.478       .  S
C297        H301   1.081       .  S
N298        C309   1.340       .  A
N298       Co308   2.053       .  S
C302        N318   1.332       .  A
C302        C314   1.489       .  S
C302        C322   1.494       .  S
Co304      N1590   2.110   1_455  S
Co304      N1596   2.140   1_455  S
Co304     Cl1623   2.522       .  S
N305        C316   1.328       .  A
C306        C602   1.520       .  S
Co308      Cl315   2.383       .  S
Cl315     Co1579   2.382       .  S
Cl315     Co1612   2.522       .  S
C316        C375   1.473       .  S
C319        C320   1.420       .  A
C319        C324   1.414       .  A
C320        C321   1.424       .  A
C320        C325   1.448       .  S
C321        C322   1.411       .  A
C321        C328   1.446       .  S
C322        C323   1.415       .  A
C323        C324   1.407       .  A
C323        C326   1.453       .  S
C324        C327   1.454       .  S
C325        N332   1.157   1_565  T
C326        N331   1.157       .  T
C327        N329   1.157       .  T
C328        N330   1.157       .  T
C333        C334   1.403       .  A
C333        C338   1.426       .  A
C334        C335   1.405       .  A
C334        C339   1.452       .  S
C335        C336   1.423       .  A
C335        C342   1.450       .  S
C336        C337   1.399       .  A
C337        C338   1.407       .  A
C337        C340   1.451       .  S
C338        C341   1.449       .  S
C339        N346   1.157       .  T
C340        N345   1.157       .  T
C341        N343   1.157       .  T
C342        N344   1.156   1_565  T
C347        C348   1.402       .  A
C347        C352   1.426       .  A
C348        C349   1.409       .  A
C348        C353   1.451       .  S
C349        C350   1.428       .  A
C349        C356   1.452       .  S
C350        C351   1.406       .  A
C351        C352   1.406       .  A
C351        C354   1.452       .  S
C352        C355   1.453       .  S
C353        N360   1.157       .  T
C354        N359   1.157       .  T
C355        N357   1.157       .  T
C356        N358   1.158       .  T
C361        C362   1.419       .  A
C361        C366   1.417       .  A
C362        C363   1.408       .  A
C362        C367   1.453       .  S
C363        C364   1.406       .  A
C363        C370   1.450       .  S
C364        C365   1.414       .  A
C365        C366   1.425       .  A
C365        C368   1.445       .  S
C366        C369   1.446       .  S
C367        N374   1.157       .  T
C368        N373   1.156       .  T
C369        N371   1.156       .  T
C370        N372   1.156       .  T
C375        C376   1.410       .  A
C375        C380   1.409       .  A
C376        C377   1.417       .  A
C376        C381   1.444       .  S
C377        C378   1.413       .  A
C377        C384   1.445       .  S
C378        C379   1.419       .  A
C379        C380   1.405       .  A
C379        C382   1.450       .  S
C380        C383   1.455       .  S
C381        N388   1.155       .  T
C382        N387   1.156       .  T
C383        N385   1.157       .  T
C384        N386   1.156       .  T
C389        C390   1.416       .  A
C389        C394   1.411       .  A
C390        C391   1.426       .  A
C390        C395   1.445       .  S
C391        C392   1.416       .  A
C391        C398   1.444       .  S
C392        C393   1.400       .  A
C393        C394   1.401       .  A
C393        C396   1.448       .  S
C394        C397   1.445       .  S
C395        N402   1.156       .  T
C396        N401   1.157       .  T
C397        N399   1.155       .  T
C398        N400   1.156       .  T
C403        C404   1.413       .  A
C403        C408   1.422       .  A
C404        C405   1.421       .  A
C404        C409   1.447       .  S
C405        C406   1.415       .  A
C405        C412   1.446       .  S
C406        C407   1.406       .  A
C407        C408   1.409       .  A
C407        C410   1.450       .  S
C408        C411   1.454       .  S
C409        N416   1.157       .  T
C410        N415   1.156       .  T
C411        N413   1.158       .  T
C412        N414   1.156       .  T
C417        C418   1.403       .  A
C417        C422   1.429       .  A
C418        C419   1.414       .  A
C418        C423   1.450       .  S
C419        C420   1.428       .  A
C419        C426   1.450       .  S
C420        C421   1.405       .  A
C421        C422   1.414       .  A
C421        C424   1.451       .  S
C422        C425   1.451       .  S
C423        N430   1.157       .  T
C424        N429   1.157       .  T
C425        N427   1.157   1_545  T
C426        N428   1.157       .  T
C431        C432   1.414       .  A
C431        C436   1.420       .  A
C432        C433   1.423       .  A
C432        C437   1.449       .  S
C433        C434   1.416       .  A
C433        C440   1.448       .  S
C434        C435   1.411       .  A
C435        C436   1.422       .  A
C435        C438   1.449       .  S
C436        C439   1.447       .  S
C437        N444   1.157       .  T
C438        N443   1.157       .  T
C439        N441   1.156       .  T
C440        N442   1.157       .  T
C445        C446   1.410       .  A
C445        C450   1.415       .  A
C446        C447   1.415       .  A
C446        C451   1.444       .  S
C447        C448   1.412       .  A
C447        C454   1.448       .  S
C448        C449   1.409       .  A
C449        C450   1.418       .  A
C449        C452   1.447       .  S
C450        C453   1.447       .  S
C451        N458   1.156       .  T
C452        N457   1.157       .  T
C453       N1109   1.157       .  T
C454        N456   1.156       .  T
N455       C1107   1.157       .  T
C459        C460   1.422       .  A
C459        C464   1.410       .  A
C460        C461   1.419       .  A
C460        C465   1.446       .  S
C461        C462   1.409       .  A
C461        C468   1.451       .  S
C462        C463   1.410       .  A
C463        C464   1.418       .  A
C463        C466   1.441       .  S
C464        C467   1.445       .  S
C465        N472   1.156       .  T
C466        N471   1.154       .  T
C467        N469   1.156       .  T
C468        N470   1.157       .  T
C473        C474   1.415       .  A
C473        C478   1.414       .  A
C474        C475   1.418       .  A
C474        C479   1.449       .  S
C475        C476   1.417       .  A
C475        C482   1.449       .  S
C476        C477   1.411       .  A
C477        C478   1.420       .  A
C477        C480   1.448       .  S
C478        C481   1.448       .  S
C479        N486   1.157       .  T
C480        N485   1.157       .  T
C481        N483   1.157       .  T
C482        N484   1.157       .  T
C487        C488   1.398       .  A
C487        C492   1.416       .  A
C488        C489   1.404       .  A
C488        C493   1.456       .  S
C489        C490   1.432       .  A
C489        C496   1.452       .  S
C490        C491   1.411       .  A
C491        C492   1.420       .  A
C491        C494   1.448       .  S
C492        C495   1.450       .  S
C493        N500   1.157       .  T
C494        N499   1.157       .  T
C495        N497   1.157       .  T
C496        N498   1.157       .  T
C501        C502   1.411       .  A
C501        C506   1.421       .  A
C502        C503   1.426       .  A
C502        C507   1.447       .  S
C503        C504   1.418       .  A
C503        C510   1.439       .  S
C504        C505   1.412       .  A
C505        C506   1.406       .  A
C505        C508   1.453       .  S
C506        C509   1.453       .  S
C507       N1822   1.157       .  T
C508        N513   1.157       .  T
C509        N511   1.157       .  T
C510       N1820   1.154       .  T
N512       C1818   1.154   1_455  T
N514       C1815   1.157       .  T
C515        C516   1.406       .  A
C515        C520   1.408       .  A
C516        C517   1.420       .  A
C516        C521   1.451       .  S
C517        C518   1.426       .  A
C517        C524   1.444       .  S
C518        C519   1.420       .  A
C519        C520   1.419       .  A
C519        C522   1.443       .  S
C520        C523   1.445       .  S
C521        N528   1.157       .  T
C522        N527   1.156       .  T
C523        N525   1.156       .  T
C524        N526   1.156       .  T
C529        C530   1.406       .  A
C529        C534   1.407       .  A
C530        C531   1.418       .  A
C530        C535   1.446       .  S
C531        C532   1.420       .  A
C531        C538   1.447       .  S
C532        C533   1.410       .  A
C533        C534   1.408       .  A
C533        C536   1.451       .  S
C534        C537   1.435       .  S
C535        N542   1.157       .  T
C536        N541   1.157       .  T
C537        N539   1.152       .  T
C538        N540   1.157       .  T
C543        C544   1.414       .  A
C543        C548   1.424       .  A
C544        C545   1.421       .  A
C544       C1203   1.447       .  S
C545        C546   1.412       .  A
C545        C552   1.448       .  S
C546        C547   1.406       .  A
C547        C548   1.417       .  A
C547        C550   1.452       .  S
C548        C551   1.446       .  S
C549       C1198   1.447       .  S
C549        N556   1.157   1_556  T
C550        N555   1.157       .  T
C551        N553   1.156       .  T
C552       N1208   1.157       .  T
N554       C1206   1.157   1_554  T
C557        C558   1.421       .  A
C557        C562   1.416       .  A
C558        C559   1.424       .  A
C558        C563   1.452       .  S
C559        C560   1.424       .  A
C559        C566   1.449       .  S
C560        C561   1.421       .  A
C561        C562   1.413       .  A
C561        C564   1.442       .  S
C562        C565   1.445       .  S
C563        N570   1.158       .  T
C564        N569   1.154       .  T
C565        N567   1.154       .  T
C566        N568   1.157       .  T
C571        C572   1.414       .  A
C571        C576   1.416       .  A
C572        C573   1.418       .  A
C572        C577   1.443       .  S
C573        C574   1.421       .  A
C573        C580   1.446       .  S
C574        C575   1.420       .  A
C575        C576   1.417       .  A
C575        C578   1.445       .  S
C576        C579   1.449       .  S
C577        N584   1.155   1_554  T
C578        N583   1.157       .  T
C579        N581   1.157       .  T
C580        N582   1.155       .  T
C585        C586   1.424       .  A
C585        C590   1.415       .  A
C586        C587   1.418       .  A
C586        C591   1.448       .  S
C587        C588   1.407       .  A
C587        C594   1.451       .  S
C588        C589   1.414       .  A
C589        C590   1.425       .  A
C589        C592   1.450       .  S
C590        C593   1.448       .  S
C591        N598   1.157       .  T
C592       N1251   1.157   1_554  T
C593       N1249   1.157       .  T
C594        N596   1.157       .  T
N595       C1247   1.157       .  T
N597       C1246   1.157       .  T
C599        C600   1.408       .  A
C599        C604   1.408       .  A
C600        C601   1.419       .  A
C600        C605   1.451       .  S
C601        C602   1.425       .  A
C601        C608   1.446       .  S
C602        C603   1.421       .  A
C603        C604   1.415       .  A
C603        C606   1.443       .  S
C604        C607   1.448       .  S
C605        N612   1.157       .  T
C606       N1919   1.156       .  T
C607        N609   1.156       .  T
C608        N610   1.156       .  T
N611       C1914   1.156       .  T
C613        C614   1.410       .  A
C613        C618   1.408       .  A
C614        C615   1.416       .  A
C614        C619   1.449       .  S
C615        C616   1.415       .  A
C615        C622   1.443       .  S
C616        C617   1.412       .  A
C617        C618   1.413       .  A
C617        C620   1.442       .  S
C618        C621   1.443       .  S
C619        N626   1.157       .  T
C620        N625   1.155       .  T
C621        N623   1.155       .  T
C622        N624   1.156       .  T
C627        C628   1.410       .  A
C627        C632   1.434       .  A
C628        C629   1.418       .  A
C628        C633   1.449       .  S
C629        C630   1.415       .  A
C629        C636   1.448       .  S
C630        C631   1.395       .  A
C631        C632   1.403       .  A
C631        C634   1.457       .  S
C632        C635   1.447       .  S
C633        N640   1.157       .  T
C634        N639   1.157       .  T
C635        N637   1.155       .  T
C636        N638   1.157       .  T
C641        C642   1.427       .  A
C641        C646   1.423       .  A
C642        C643   1.408       .  A
C642        C647   1.451       .  S
C643        C644   1.405       .  A
C643        C650   1.454       .  S
C644        C645   1.401       .  A
C645        C646   1.418       .  A
C645        C648   1.448       .  S
C646        C649   1.434       .  S
C647        N654   1.158       .  T
C648       N1961   1.157   1_455  T
C649       N1959   1.153   1_455  T
C650        N652   1.157       .  T
N651       C1957   1.153       .  T
N653       C1956   1.157       .  T
C655        N673   1.357       .  A
C655        C692   1.452       .  S
C655       C1242   1.503       .  S
N656        N673   1.332       .  A
N656        N678   1.317       .  A
C657        N682   1.357       .  A
C657        C695   1.483       .  S
C657        H702   1.081       .  S
H658        C699   1.081       .  S
C659        N683   1.323       .  A
C659        C663   1.440       .  S
C659        H688   1.078       .  S
Co660       N678   2.083       .  S
Co660       N668   2.074       .  S
Co660       N700   2.086       .  S
Co660       N676   2.061       .  S
Co660      Cl704   2.382       .  S
N661        C699   1.353       .  A
N661        N668   1.322       .  A
N661       Co662   2.107       .  S
Co662       N682   2.134       .  S
Co662      Cl704   2.537       .  S
C663        N701   1.368       .  A
C663       C1281   1.503       .  S
N664        N671   1.306       .  A
N664        N694   1.329       .  A
N664       Co697   2.092       .  S
N665        N683   1.314       .  A
N665        N701   1.334       .  A
N666        C695   1.336       .  A
N666        N676   1.313       .  A
H667        C692   1.078       .  S
N668        N689   1.312       .  A
N669        N687   1.320       .  A
N669        N674   1.332       .  A
C670        N674   1.362       .  A
C670        C698   1.447       .  S
C670       C1253   1.493       .  S
N671        C686   1.334       .  A
N671       Co693   2.068   1_556  S
C672        N700   1.339       .  A
C672        C675   1.477       .  S
C672        H706   1.072       .  S
C675        N696   1.357       .  A
C675       C1228   1.525       .  S
N676        N682   1.323       .  A
N677        C703   1.343       .  A
N677        N679   1.314       .  A
N677       Co693   2.101   1_556  S
N678        C692   1.344       .  A
N679        N707   1.328       .  A
N679       Co697   2.074       .  S
H680        C703   1.056       .  S
H681        C698   1.080       .  S
N683       Co697   2.050       .  S
N684        N696   1.327       .  A
N684        N700   1.311       .  A
C685        N689   1.340       .  A
C685        C699   1.479       .  S
C685       C1298   1.487       .  S
C686        C705   1.476       .  S
C686        H690   1.071       .  S
N687        C698   1.335       .  A
N687       Co697   2.105       .  S
C691        N707   1.345       .  A
C691        C703   1.463       .  S
C691       C1200   1.499       .  S
N694        C705   1.359       .  A
C695       C1267   1.489       .  S
C705       C1214   1.529       .  S
C708        N726   1.367       .  A
C708        C745   1.447       .  S
C708       C1183   1.491       .  S
N709        N726   1.333       .  A
N709        N731   1.320       .  A
N709       Co746   2.140       .  S
C710        N735   1.343       .  A
C710        C748   1.466       .  S
C710        H755   1.068       .  S
H711        C752   1.069       .  S
C712        N736   1.343       .  A
C712        C716   1.461       .  S
C712        H741   1.080       .  S
Co713       N731   2.054       .  S
Co713       N721   2.072       .  S
Co713       N753   2.026       .  S
Co713       N729   2.097       .  S
Co713      Cl757   2.380       .  S
N714        C752   1.342       .  A
N714        N721   1.314       .  A
Co715       N718   2.112   1_554  S
Co715       N722   2.121   1_554  S
C716        N754   1.355       .  A
C716       C1130   1.503       .  S
N717        N724   1.325       .  A
N717        N747   1.321       .  A
N717       Co750   2.095       .  S
N718        N736   1.317       .  A
N718        N754   1.330       .  A
N719        C748   1.354       .  A
N719        N729   1.331       .  A
H720        C745   1.082       .  S
N721        N742   1.328       .  A
N722        N740   1.315       .  A
N722        N727   1.334       .  A
C723        N727   1.359       .  A
C723        C751   1.451       .  S
C723       C1113   1.507       .  S
N724        C739   1.354       .  A
C725        N753   1.310       .  A
C725        C728   1.437       .  S
C725        H759   1.080       .  S
C728        N749   1.378       .  A
C728       C1155   1.512       .  S
N729        N735   1.312       .  A
N730        C756   1.359       .  A
N730        N732   1.321       .  A
N731        C745   1.329       .  A
N732        N760   1.311       .  A
N732       Co750   2.064       .  S
H733        C756   1.081       .  S
H734        C751   1.078       .  S
N736       Co750   2.082       .  S
N737        N749   1.345       .  A
N737        N753   1.318       .  A
N737       Co746   2.156       .  S
C738        N742   1.349       .  A
C738        C752   1.463       .  S
C738       C1099   1.498       .  S
C739        C758   1.479       .  S
C739        H743   1.081       .  S
N740        C751   1.343       .  A
N740       Co750   2.079       .  S
C744        N760   1.331       .  A
C744        C756   1.488       .  S
C744       C1144   1.503       .  S
Co746      Cl757   2.535       .  S
N747        C758   1.343       .  A
C748       C1085   1.513       .  S
C758       C1169   1.498       .  S
C761        N779   1.370       .  A
C761        C798   1.450       .  S
C761       C1239   1.515       .  S
N762        N779   1.339       .  A
N762        N784   1.316       .  A
N762       Co799   2.151   1_545  S
C763        N788   1.361       .  A
C763        C801   1.483       .  S
C763        H808   1.081       .  S
H764        C805   1.081       .  S
C765        N789   1.320       .  A
C765        C769   1.442       .  S
C765        H794   1.081       .  S
Co766       N784   2.064       .  S
Co766       N774   2.063       .  S
Co766       N806   2.073   1_545  S
Co766       N782   2.061   1_545  S
Co766      Cl810   2.367   1_545  S
N767        C805   1.356       .  A
N767        N774   1.325       .  A
N767       Co768   2.119   1_545  S
Co768       N771   2.144   1_565  S
Co768       N788   2.123       .  S
Co768       N775   2.130       .  S
Co768      Cl810   2.535       .  S
C769        N807   1.371       .  A
C769       C1057   1.506       .  S
N770        N777   1.312       .  A
N770        N800   1.326       .  A
N770       Co803   2.068   1_545  S
N771        N789   1.322       .  A
N771        N807   1.338       .  A
N772        C801   1.332       .  A
N772        N782   1.309       .  A
H773        C798   1.080       .  S
N774        N795   1.314       .  A
N775        N793   1.319       .  A
N775        N780   1.335       .  A
C776        N780   1.367       .  A
C776        C804   1.436       .  S
C776       C1032   1.494       .  S
N777        C792   1.339       .  A
N777       Co799   2.092   1_545  S
C778        N806   1.337       .  A
C778        C781   1.466       .  S
C778        H812   1.076       .  S
C781        N802   1.361       .  A
C781       C1225   1.521       .  S
N782        N788   1.324       .  A
N783        C809   1.344       .  A
N783        N785   1.314       .  A
N783       Co799   2.118       .  S
N784        C798   1.338       .  A
N785        N813   1.329       .  A
N785       Co803   2.069       .  S
H786        C809   1.065       .  S
H787        C804   1.082       .  S
N789       Co803   2.050   1_545  S
N790        N802   1.334       .  A
N790        N806   1.312       .  A
N790       Co799   2.114       .  S
C791        N795   1.333       .  A
C791        C805   1.480       .  S
C791       C1071   1.500       .  S
C792        C811   1.471       .  S
C792        H796   1.070       .  S
N793        C804   1.318       .  A
N793       Co803   2.030       .  S
C797        N813   1.348       .  A
C797        C809   1.471       .  S
C797       C1088   1.509       .  S
Co799      Cl810   2.507       .  S
N800        C811   1.349       .  A
C801       C1043   1.494       .  S
Co803      Cl810   2.377       .  S
C811       C1102   1.495       .  S
C814        N832   1.364       .  A
C814        C851   1.439       .  S
C814       C1018   1.494       .  S
N815        N832   1.337       .  A
N815        N837   1.321       .  A
N815       Co852   2.128       .  S
C816        N841   1.347       .  A
C816        C854   1.477       .  S
C816        H861   1.069       .  S
H817        C858   1.073       .  S
C818        N842   1.338       .  A
C818        C822   1.446       .  S
C818        H847   1.080       .  S
Co819       N837   2.056       .  S
Co819       N827   2.075       .  S
Co819       N859   2.043   1_545  S
Co819       N835   2.081   1_545  S
Co819      Cl863   2.371       .  S
N820        C858   1.337       .  A
N820        N827   1.309       .  A
N820       Co821   2.082   1_545  S
Co821       N824   2.139   1_565  S
Co821       N841   2.120       .  S
Co821       N828   2.115       .  S
Co821      Cl863   2.492   1_565  S
C822        N860   1.364       .  A
C822       C1127   1.504       .  S
N823        N830   1.323       .  A
N823        N853   1.314       .  A
N823       Co856   2.069   1_545  S
N824        N842   1.316       .  A
N824        N860   1.334       .  A
N825        C854   1.350       .  A
N825        N835   1.329       .  A
H826        C851   1.081       .  S
N827        N848   1.325       .  A
N828        N846   1.316       .  A
N828        N833   1.330       .  A
C829        N833   1.360       .  A
C829        C857   1.455       .  S
C829       C1116   1.501       .  S
N830        C845   1.346       .  A
N830       Co852   2.087       .  S
C831        N859   1.320       .  A
C831        C834   1.438       .  S
C831        H865   1.081       .  S
C834        N855   1.358       .  A
C834        C990   1.480       .  S
N835        N841   1.315       .  A
N836        C862   1.359       .  A
N836        N838   1.325       .  A
N836       Co852   2.134   1_565  S
N837        C851   1.325       .  A
N838        N866   1.314       .  A
N838       Co856   2.055       .  S
H839        C862   1.081       .  S
H840        C857   1.081       .  S
N842       Co856   2.054   1_545  S
N843        N855   1.330       .  A
N843        N859   1.321       .  A
N843       Co852   2.099   1_565  S
C844        N848   1.354       .  A
C844        C858   1.479       .  S
C844       C1211   1.523       .  S
C845        C864   1.472       .  S
C845        H849   1.081       .  S
N846        C857   1.341       .  A
N846       Co856   2.071       .  S
C850        N866   1.335       .  A
C850        C862   1.482       .  S
C850        C973   1.494       .  S
Co852      Cl863   2.526       .  S
N853        C864   1.336       .  A
C854       C1197   1.514       .  S
Co856      Cl863   2.389   1_565  S
C864       C1004   1.489       .  S
C867        N885   1.366       .  A
C867        C904   1.451       .  S
C867       C1295   1.517       .  S
N868        N885   1.336       .  A
N868        N890   1.315       .  A
N868      Co2213   2.127       .  S
C869        N894   1.361       .  A
C869        C907   1.491       .  S
C869        H914   1.081       .  S
H870        C911   1.081       .  S
C871        N895   1.328       .  A
C871        C875   1.439       .  S
C871        H900   1.081       .  S
Co872       N890   2.057       .  S
Co872       N880   2.062       .  S
Co872       N912   2.055       .  S
Co872       N888   2.048       .  S
Co872     Cl2224   2.369       .  S
N873        C911   1.357       .  A
N873        N880   1.322       .  A
N873      Co2182   2.116       .  S
Co874      N2181   2.116       .  S
Co874       N877   2.139       .  S
Co874      N2202   2.141       .  S
Co874       N881   2.117       .  S
Co874      Cl916   2.527       .  S
C875        N913   1.364       .  A
C875       C1060   1.489       .  S
N876        N883   1.311       .  A
N876        N906   1.327       .  A
N876       Co909   2.082       .  S
N877        N895   1.327       .  A
N877        N913   1.336       .  A
N878        C907   1.329       .  A
N878        N888   1.310       .  A
H879        C904   1.074       .  S
N880        N901   1.315       .  A
N881        N899   1.319       .  A
N881        N886   1.333       .  A
C882        N886   1.363       .  A
C882        C910   1.436       .  S
C882       C1001   1.486       .  S
N883        C898   1.337       .  A
N883       Co905   2.062       .  S
C884        N912   1.340       .  A
C884        C887   1.444       .  S
C884        H918   1.078       .  S
C887        N908   1.345       .  A
C887       C1284   1.476       .  S
N888        N894   1.323       .  A
N889        C915   1.348       .  A
N889        N891   1.315       .  A
N889       Co905   2.112       .  S
N890        C904   1.329       .  A
N891        N919   1.331       .  A
N891       Co909   2.095       .  S
H892        C915   1.075       .  S
H893        C910   1.081       .  S
N894      Co2182   2.141       .  S
N895       Co909   2.074       .  S
N896        N908   1.324       .  A
N896        N912   1.312       .  A
N896      Co2213   2.077       .  S
C897        N901   1.334       .  A
C897        C911   1.480       .  S
C897       C1074   1.500       .  S
C898        C917   1.461       .  S
C898        H902   1.078       .  S
N899        C910   1.320       .  A
N899       Co909   2.032       .  S
C903        N919   1.354       .  A
C903        C915   1.472       .  S
C903       C1172   1.524       .  S
Co905      N2176   2.127       .  S
Co905      N2204   2.077       .  S
Co905      Cl916   2.510       .  S
N906        C917   1.352       .  A
C907       C1015   1.495       .  S
Co909      Cl916   2.370       .  S
Cl916     Co2180   2.369       .  S
C917       C1186   1.491       .  S
C920        N938   1.360       .  A
C920        C957   1.444       .  S
C920       C1046   1.489       .  S
N921        N938   1.335       .  A
N921        N943   1.326       .  A
N921       Co958   2.122       .  S
C922        N947   1.344       .  A
C922        C960   1.467       .  S
C922        H967   1.074       .  S
H923        C964   1.080       .  S
C924        N948   1.334       .  A
C924        C928   1.445       .  S
C924        H953   1.078       .  S
Co925       N943   2.071       .  S
Co925       N933   2.090       .  S
Co925       N965   2.047       .  S
Co925       N941   2.096       .  S
Co925     Cl2277   2.382       .  S
N926        C964   1.339       .  A
N926        N933   1.312       .  A
N926      Co2235   2.074   1_455  S
Co927      N2234   2.074       .  S
Co927       N930   2.123       .  S
Co927      N2255   2.105       .  S
Co927       N934   2.096       .  S
Co927      Cl969   2.492       .  S
C928        N966   1.363       .  A
C928       C1158   1.504       .  S
N929        N936   1.320       .  A
N929        N959   1.307       .  A
N929       Co962   2.037       .  S
N930        N948   1.316       .  A
N930        N966   1.336       .  A
N931        C960   1.355       .  A
N931        N941   1.331       .  A
H932        C957   1.080       .  S
N933        N954   1.328       .  A
N934        N952   1.313       .  A
N934        N939   1.326       .  A
C935        N939   1.348       .  A
C935        C963   1.446       .  S
C935       C1141   1.480       .  S
N936        C951   1.356       .  A
N936      Co2266   2.110       .  S
C937        N965   1.327       .  A
C937        C940   1.441       .  S
C937        H971   1.081       .  S
C940        N961   1.357       .  A
C940        C987   1.485       .  S
N941        N947   1.316       .  A
N942        C968   1.361       .  A
N942        N944   1.322       .  A
N942      Co2266   2.140       .  S
N943        C957   1.327       .  A
N944        N972   1.310       .  A
N944       Co962   2.044       .  S
H945        C968   1.081       .  S
H946        C963   1.079       .  S
N947      Co2235   2.105   1_455  S
N948       Co962   2.066       .  S
N949        N961   1.329       .  A
N949        N965   1.323       .  A
N949       Co958   2.104       .  S
C950        N954   1.355       .  A
C950        C964   1.470       .  S
C950       C1270   1.512       .  S
C951        C970   1.478       .  S
C951        H955   1.081       .  S
N952        C963   1.340       .  A
N952       Co962   2.053       .  S
C956        N972   1.332       .  A
C956        C968   1.489       .  S
C956        C976   1.494       .  S
Co958      N2244   2.110   1_455  S
Co958      N2250   2.140   1_455  S
Co958     Cl2277   2.522       .  S
N959        C970   1.328       .  A
C960       C1256   1.520       .  S
Co962      Cl969   2.383       .  S
Cl969     Co2233   2.382       .  S
Cl969     Co2266   2.522       .  S
C970       C1029   1.473       .  S
C973        C974   1.420       .  A
C973        C978   1.414       .  A
C974        C975   1.424       .  A
C974        C979   1.448       .  S
C975        C976   1.411       .  A
C975        C982   1.446       .  S
C976        C977   1.415       .  A
C977        C978   1.407       .  A
C977        C980   1.453       .  S
C978        C981   1.454       .  S
C979        N986   1.157   1_565  T
C980        N985   1.157       .  T
C981        N983   1.157       .  T
C982        N984   1.157       .  T
C987        C988   1.403       .  A
C987        C992   1.426       .  A
C988        C989   1.405       .  A
C988        C993   1.452       .  S
C989        C990   1.423       .  A
C989        C996   1.450       .  S
C990        C991   1.399       .  A
C991        C992   1.407       .  A
C991        C994   1.451       .  S
C992        C995   1.449       .  S
C993       N1000   1.157       .  T
C994        N999   1.157       .  T
C995        N997   1.157       .  T
C996        N998   1.156   1_565  T
C1001      C1002   1.402       .  A
C1001      C1006   1.426       .  A
C1002      C1003   1.409       .  A
C1002      C1007   1.451       .  S
C1003      C1004   1.428       .  A
C1003      C1010   1.452       .  S
C1004      C1005   1.406       .  A
C1005      C1006   1.406       .  A
C1005      C1008   1.452       .  S
C1006      C1009   1.453       .  S
C1007      N1014   1.157       .  T
C1008      N1013   1.157       .  T
C1009      N1011   1.157       .  T
C1010      N1012   1.158       .  T
C1015      C1016   1.419       .  A
C1015      C1020   1.417       .  A
C1016      C1017   1.408       .  A
C1016      C1021   1.453       .  S
C1017      C1018   1.406       .  A
C1017      C1024   1.450       .  S
C1018      C1019   1.414       .  A
C1019      C1020   1.425       .  A
C1019      C1022   1.445       .  S
C1020      C1023   1.446       .  S
C1021      N1028   1.157       .  T
C1022      N1027   1.156       .  T
C1023      N1025   1.156       .  T
C1024      N1026   1.156       .  T
C1029      C1030   1.410       .  A
C1029      C1034   1.409       .  A
C1030      C1031   1.417       .  A
C1030      C1035   1.444       .  S
C1031      C1032   1.413       .  A
C1031      C1038   1.445       .  S
C1032      C1033   1.419       .  A
C1033      C1034   1.405       .  A
C1033      C1036   1.450       .  S
C1034      C1037   1.455       .  S
C1035      N1042   1.155       .  T
C1036      N1041   1.156       .  T
C1037      N1039   1.157       .  T
C1038      N1040   1.156       .  T
C1043      C1044   1.416       .  A
C1043      C1048   1.411       .  A
C1044      C1045   1.426       .  A
C1044      C1049   1.445       .  S
C1045      C1046   1.416       .  A
C1045      C1052   1.444       .  S
C1046      C1047   1.400       .  A
C1047      C1048   1.401       .  A
C1047      C1050   1.448       .  S
C1048      C1051   1.445       .  S
C1049      N1056   1.156       .  T
C1050      N1055   1.157       .  T
C1051      N1053   1.155       .  T
C1052      N1054   1.156       .  T
C1057      C1058   1.413       .  A
C1057      C1062   1.422       .  A
C1058      C1059   1.421       .  A
C1058      C1063   1.447       .  S
C1059      C1060   1.415       .  A
C1059      C1066   1.446       .  S
C1060      C1061   1.406       .  A
C1061      C1062   1.409       .  A
C1061      C1064   1.450       .  S
C1062      C1065   1.454       .  S
C1063      N1070   1.157       .  T
C1064      N1069   1.156       .  T
C1065      N1067   1.158       .  T
C1066      N1068   1.156       .  T
C1071      C1072   1.403       .  A
C1071      C1076   1.429       .  A
C1072      C1073   1.414       .  A
C1072      C1077   1.450       .  S
C1073      C1074   1.428       .  A
C1073      C1080   1.450       .  S
C1074      C1075   1.405       .  A
C1075      C1076   1.414       .  A
C1075      C1078   1.451       .  S
C1076      C1079   1.451       .  S
C1077      N1084   1.157       .  T
C1078      N1083   1.157       .  T
C1079      N1081   1.157   1_545  T
C1080      N1082   1.157       .  T
C1085      C1086   1.414       .  A
C1085      C1090   1.420       .  A
C1086      C1087   1.423       .  A
C1086      C1091   1.449       .  S
C1087      C1088   1.416       .  A
C1087      C1094   1.448       .  S
C1088      C1089   1.411       .  A
C1089      C1090   1.422       .  A
C1089      C1092   1.449       .  S
C1090      C1093   1.447       .  S
C1091      N1098   1.157       .  T
C1092      N1097   1.157       .  T
C1093      N1095   1.156       .  T
C1094      N1096   1.157       .  T
C1099      C1100   1.410       .  A
C1099      C1104   1.415       .  A
C1100      C1101   1.415       .  A
C1100      C1105   1.444       .  S
C1101      C1102   1.412       .  A
C1101      C1108   1.448       .  S
C1102      C1103   1.409       .  A
C1103      C1104   1.418       .  A
C1103      C1106   1.447       .  S
C1104      C1107   1.447       .  S
C1105      N1112   1.156       .  T
C1106      N1111   1.157       .  T
C1108      N1110   1.156       .  T
C1113      C1114   1.422       .  A
C1113      C1118   1.410       .  A
C1114      C1115   1.419       .  A
C1114      C1119   1.446       .  S
C1115      C1116   1.409       .  A
C1115      C1122   1.451       .  S
C1116      C1117   1.410       .  A
C1117      C1118   1.418       .  A
C1117      C1120   1.441       .  S
C1118      C1121   1.445       .  S
C1119      N1126   1.156       .  T
C1120      N1125   1.154       .  T
C1121      N1123   1.156       .  T
C1122      N1124   1.157       .  T
C1127      C1128   1.415       .  A
C1127      C1132   1.414       .  A
C1128      C1129   1.418       .  A
C1128      C1133   1.449       .  S
C1129      C1130   1.417       .  A
C1129      C1136   1.449       .  S
C1130      C1131   1.411       .  A
C1131      C1132   1.420       .  A
C1131      C1134   1.448       .  S
C1132      C1135   1.448       .  S
C1133      N1140   1.157       .  T
C1134      N1139   1.157       .  T
C1135      N1137   1.157       .  T
C1136      N1138   1.157       .  T
C1141      C1142   1.398       .  A
C1141      C1146   1.416       .  A
C1142      C1143   1.404       .  A
C1142      C1147   1.456       .  S
C1143      C1144   1.432       .  A
C1143      C1150   1.452       .  S
C1144      C1145   1.411       .  A
C1145      C1146   1.420       .  A
C1145      C1148   1.448       .  S
C1146      C1149   1.450       .  S
C1147      N1154   1.157       .  T
C1148      N1153   1.157       .  T
C1149      N1151   1.157       .  T
C1150      N1152   1.157       .  T
C1155      C1156   1.411       .  A
C1155      C1160   1.421       .  A
C1156      C1157   1.426       .  A
C1156      C1161   1.447       .  S
C1157      C1158   1.418       .  A
C1157      C1164   1.439       .  S
C1158      C1159   1.412       .  A
C1159      C1160   1.406       .  A
C1159      C1162   1.453       .  S
C1160      C1163   1.453       .  S
C1161      N2476   1.157       .  T
C1162      N1167   1.157       .  T
C1163      N1165   1.157       .  T
C1164      N2474   1.154       .  T
N1166      C2472   1.154   1_455  T
N1168      C2469   1.157       .  T
C1169      C1170   1.406       .  A
C1169      C1174   1.408       .  A
C1170      C1171   1.420       .  A
C1170      C1175   1.451       .  S
C1171      C1172   1.426       .  A
C1171      C1178   1.444       .  S
C1172      C1173   1.420       .  A
C1173      C1174   1.419       .  A
C1173      C1176   1.443       .  S
C1174      C1177   1.445       .  S
C1175      N1182   1.157       .  T
C1176      N1181   1.156       .  T
C1177      N1179   1.156       .  T
C1178      N1180   1.156       .  T
C1183      C1184   1.406       .  A
C1183      C1188   1.407       .  A
C1184      C1185   1.418       .  A
C1184      C1189   1.446       .  S
C1185      C1186   1.420       .  A
C1185      C1192   1.447       .  S
C1186      C1187   1.410       .  A
C1187      C1188   1.408       .  A
C1187      C1190   1.451       .  S
C1188      C1191   1.435       .  S
C1189      N1196   1.157       .  T
C1190      N1195   1.157       .  T
C1191      N1193   1.152       .  T
C1192      N1194   1.157       .  T
C1197      C1198   1.414       .  A
C1197      C1202   1.424       .  A
C1198      C1199   1.421       .  A
C1199      C1200   1.412       .  A
C1199      C1206   1.448       .  S
C1200      C1201   1.406       .  A
C1201      C1202   1.417       .  A
C1201      C1204   1.452       .  S
C1202      C1205   1.446       .  S
C1203      N1210   1.157       .  T
C1204      N1209   1.157       .  T
C1205      N1207   1.156       .  T
C1211      C1212   1.421       .  A
C1211      C1216   1.416       .  A
C1212      C1213   1.424       .  A
C1212      C1217   1.452       .  S
C1213      C1214   1.424       .  A
C1213      C1220   1.449       .  S
C1214      C1215   1.421       .  A
C1215      C1216   1.413       .  A
C1215      C1218   1.442       .  S
C1216      C1219   1.445       .  S
C1217      N1224   1.158       .  T
C1218      N1223   1.154   1_556  T
C1219      N1221   1.154   1_556  T
C1220      N1222   1.157       .  T
C1225      C1226   1.414       .  A
C1225      C1230   1.416       .  A
C1226      C1227   1.418       .  A
C1226      C1231   1.443       .  S
C1227      C1228   1.421       .  A
C1227      C1234   1.446       .  S
C1228      C1229   1.420       .  A
C1229      C1230   1.417       .  A
C1229      C1232   1.445       .  S
C1230      C1233   1.449       .  S
C1231      N1238   1.155       .  T
C1232      N1237   1.157       .  T
C1233      N1235   1.157       .  T
C1234      N1236   1.155       .  T
C1239      C1240   1.424       .  A
C1239      C1244   1.415       .  A
C1240      C1241   1.418       .  A
C1240      C1245   1.448       .  S
C1241      C1242   1.407       .  A
C1241      C1248   1.451       .  S
C1242      C1243   1.414       .  A
C1243      C1244   1.425       .  A
C1243      C1246   1.450       .  S
C1244      C1247   1.448       .  S
C1245      N1252   1.157       .  T
C1248      N1250   1.157       .  T
C1253      C1254   1.408       .  A
C1253      C1258   1.408       .  A
C1254      C1255   1.419       .  A
C1254      C1259   1.451       .  S
C1255      C1256   1.425       .  A
C1255      C1262   1.446       .  S
C1256      C1257   1.421       .  A
C1257      C1258   1.415       .  A
C1257      C1260   1.443       .  S
C1258      C1261   1.448       .  S
C1259      N1266   1.157       .  T
C1260      N2573   1.156       .  T
C1261      N1263   1.156       .  T
C1262      N1264   1.156       .  T
N1265      C2568   1.156       .  T
C1267      C1268   1.410       .  A
C1267      C1272   1.408       .  A
C1268      C1269   1.416       .  A
C1268      C1273   1.449       .  S
C1269      C1270   1.415       .  A
C1269      C1276   1.443       .  S
C1270      C1271   1.412       .  A
C1271      C1272   1.413       .  A
C1271      C1274   1.442       .  S
C1272      C1275   1.443       .  S
C1273      N1280   1.157       .  T
C1274      N1279   1.155       .  T
C1275      N1277   1.155       .  T
C1276      N1278   1.156       .  T
C1281      C1282   1.410       .  A
C1281      C1286   1.434       .  A
C1282      C1283   1.418       .  A
C1282      C1287   1.449       .  S
C1283      C1284   1.415       .  A
C1283      C1290   1.448       .  S
C1284      C1285   1.395       .  A
C1285      C1286   1.403       .  A
C1285      C1288   1.457       .  S
C1286      C1289   1.447       .  S
C1287      N1294   1.157       .  T
C1288      N1293   1.157       .  T
C1289      N1291   1.155       .  T
C1290      N1292   1.157       .  T
C1295      C1296   1.427       .  A
C1295      C1300   1.423       .  A
C1296      C1297   1.408       .  A
C1296      C1301   1.451       .  S
C1297      C1298   1.405       .  A
C1297      C1304   1.454       .  S
C1298      C1299   1.401       .  A
C1299      C1300   1.418       .  A
C1299      C1302   1.448       .  S
C1300      C1303   1.434       .  S
C1301      N1308   1.158       .  T
C1302      N2615   1.157   1_455  T
C1303      N2613   1.153   1_455  T
C1304      N1306   1.157       .  T
N1305      C2611   1.153       .  T
N1307      C2610   1.157       .  T
C1309      N1327   1.357       .  A
C1309      C1346   1.452       .  S
C1309      C1896   1.503       .  S
N1310      N1327   1.332       .  A
N1310      N1332   1.317       .  A
N1310     Co2001   2.119       .  S
C1311      N1336   1.357       .  A
C1311      C1349   1.483       .  S
C1311      H1356   1.081       .  S
H1312      C1353   1.081       .  S
C1313      N1337   1.323       .  A
C1313      C1317   1.440       .  S
C1313      H1342   1.078       .  S
Co1314     N1332   2.083       .  S
Co1314     N1322   2.074       .  S
Co1314     N1354   2.086       .  S
Co1314     N1330   2.061       .  S
Co1314    Cl1358   2.382       .  S
N1315      C1353   1.353       .  A
N1315      N1322   1.322       .  A
N1315     Co1316   2.107       .  S
Co1316     N1973   2.130   1_554  S
Co1316     N1336   2.134       .  S
Co1316     N1977   2.100   1_554  S
Co1316    Cl1358   2.537       .  S
C1317      N1355   1.368       .  A
C1317      C1935   1.503       .  S
N1318      N1325   1.306       .  A
N1318      N1348   1.329       .  A
N1318     Co1351   2.092       .  S
N1319      N1337   1.314       .  A
N1319      N1355   1.334       .  A
N1319     Co1970   2.130       .  S
N1320      C1349   1.336       .  A
N1320      N1330   1.313       .  A
H1321      C1346   1.078       .  S
N1322      N1343   1.312       .  A
N1323      N1341   1.320       .  A
N1323      N1328   1.332       .  A
N1323     Co1970   2.100       .  S
C1324      N1328   1.362       .  A
C1324      C1352   1.447       .  S
C1324      C1907   1.493       .  S
N1325      C1340   1.334       .  A
N1325     Co1347   2.068       .  S
C1326      N1354   1.339       .  A
C1326      C1329   1.477       .  S
C1326      H1360   1.072       .  S
C1329      N1350   1.357       .  A
C1329      C1882   1.525       .  S
N1330      N1336   1.323       .  A
N1331      C1357   1.343       .  A
N1331      N1333   1.314       .  A
N1331     Co1347   2.101       .  S
N1332      C1346   1.344       .  A
N1333      N1361   1.328       .  A
N1333     Co1351   2.074       .  S
H1334      C1357   1.056       .  S
H1335      C1352   1.080       .  S
N1337     Co1351   2.050       .  S
N1338      N1350   1.327       .  A
N1338      N1354   1.311       .  A
N1338     Co2001   2.091       .  S
C1339      N1343   1.340       .  A
C1339      C1353   1.479       .  S
C1339      C1952   1.487       .  S
C1340      C1359   1.476       .  S
C1340      H1344   1.071       .  S
N1341      C1352   1.335       .  A
N1341     Co1351   2.104       .  S
C1345      N1361   1.345       .  A
C1345      C1357   1.463       .  S
C1345      C1854   1.499       .  S
Co1347     N1964   2.119       .  S
Co1347     N1992   2.091       .  S
Co1347    Cl2012   2.499       .  S
N1348      C1359   1.359       .  A
C1349      C1921   1.489       .  S
Co1351    Cl2012   2.365       .  S
Cl1358    Co2001   2.499       .  S
Cl1358    Co2005   2.365   1_554  S
C1359      C1868   1.529       .  S
C1362      N1380   1.367       .  A
C1362      C1399   1.447       .  S
C1362      C1837   1.491       .  S
N1363      N1380   1.333       .  A
N1363      N1385   1.320       .  A
N1363     Co1400   2.140       .  S
C1364      N1389   1.343       .  A
C1364      C1402   1.466       .  S
C1364      H1409   1.068       .  S
H1365      C1406   1.069       .  S
C1366      N1390   1.343       .  A
C1366      C1370   1.461       .  S
C1366      H1395   1.080       .  S
Co1367     N1385   2.054       .  S
Co1367     N1375   2.072       .  S
Co1367     N1407   2.026       .  S
Co1367     N1383   2.097       .  S
Co1367    Cl1411   2.380       .  S
N1368      C1406   1.342       .  A
N1368      N1375   1.314       .  A
N1368     Co2023   2.105       .  S
Co1369     N2022   2.105       .  S
Co1369     N1372   2.112       .  S
Co1369     N2043   2.095       .  S
Co1369     N1376   2.121       .  S
Co1369    Cl2065   2.498       .  S
C1370      N1408   1.355       .  A
C1370      C1784   1.503       .  S
N1371      N1378   1.325       .  A
N1371      N1401   1.321       .  A
N1371     Co1404   2.095       .  S
N1372      N1390   1.317       .  A
N1372      N1408   1.330       .  A
N1373      C1402   1.354       .  A
N1373      N1383   1.331       .  A
H1374      C1399   1.082       .  S
N1375      N1396   1.328       .  A
N1376      N1394   1.315       .  A
N1376      N1381   1.334       .  A
C1377      N1381   1.359       .  A
C1377      C1405   1.451       .  S
C1377      C1767   1.507       .  S
N1378      C1393   1.354       .  A
N1378     Co2054   2.125       .  S
C1379      N1407   1.310       .  A
C1379      C1382   1.437       .  S
C1379      H1413   1.080       .  S
C1382      N1403   1.378       .  A
C1382      C1809   1.512       .  S
N1383      N1389   1.312       .  A
N1384      C1410   1.359       .  A
N1384      N1386   1.321       .  A
N1384     Co2054   2.130       .  S
N1385      C1399   1.329       .  A
N1386      N1414   1.311       .  A
N1386     Co1404   2.064       .  S
H1387      C1410   1.081       .  S
H1388      C1405   1.078       .  S
N1389     Co2023   2.095       .  S
N1390     Co1404   2.082       .  S
N1391      N1403   1.345       .  A
N1391      N1407   1.318       .  A
N1391     Co1400   2.156       .  S
C1392      N1396   1.349       .  A
C1392      C1406   1.463       .  S
C1392      C1753   1.498       .  S
C1393      C1412   1.479       .  S
C1393      H1397   1.081       .  S
N1394      C1405   1.343       .  A
N1394     Co1404   2.079       .  S
C1398      N1414   1.331       .  A
C1398      C1410   1.488       .  S
C1398      C1798   1.503       .  S
Co1400     N2032   2.125   1_554  S
Co1400     N2038   2.130   1_554  S
Co1400    Cl1411   2.535       .  S
N1401      C1412   1.343       .  A
C1402      C1739   1.513       .  S
Co1404    Cl2065   2.383       .  S
Cl1411    Co2023   2.498       .  S
Cl1411    Co2058   2.383   1_554  S
C1412      C1823   1.498       .  S
C1415      N1433   1.370       .  A
C1415      C1452   1.450       .  S
C1415      C1893   1.515       .  S
N1416      N1433   1.339       .  A
N1416      N1438   1.316       .  A
N1416     Co1453   2.151   1_545  S
C1417      N1442   1.361       .  A
C1417      C1455   1.483       .  S
C1417      H1462   1.081       .  S
H1418      C1459   1.081       .  S
C1419      N1443   1.320       .  A
C1419      C1423   1.442       .  S
C1419      H1448   1.081       .  S
Co1420     N1438   2.064       .  S
Co1420     N1428   2.063       .  S
Co1420     N1460   2.073   1_545  S
Co1420     N1436   2.061   1_545  S
Co1420    Cl1464   2.367   1_545  S
N1421      C1459   1.356       .  A
N1421      N1428   1.325       .  A
N1421     Co1422   2.119   1_545  S
Co1422     N1425   2.144   1_565  S
Co1422     N1442   2.123       .  S
Co1422     N1429   2.130       .  S
Co1422    Cl1464   2.535       .  S
C1423      N1461   1.371       .  A
C1423      C1711   1.506       .  S
N1424      N1431   1.312       .  A
N1424      N1454   1.326       .  A
N1424     Co1457   2.068   1_545  S
N1425      N1443   1.322       .  A
N1425      N1461   1.338       .  A
N1426      C1455   1.332       .  A
N1426      N1436   1.309       .  A
H1427      C1452   1.080       .  S
N1428      N1449   1.314       .  A
N1429      N1447   1.319       .  A
N1429      N1434   1.335       .  A
C1430      N1434   1.367       .  A
C1430      C1458   1.436       .  S
C1430      C1686   1.494       .  S
N1431      C1446   1.339       .  A
N1431     Co1453   2.092   1_545  S
C1432      N1460   1.337       .  A
C1432      C1435   1.466       .  S
C1432      H1466   1.076       .  S
C1435      N1456   1.361       .  A
C1435      C1879   1.521       .  S
N1436      N1442   1.324       .  A
N1437      C1463   1.344       .  A
N1437      N1439   1.314       .  A
N1437     Co1453   2.118       .  S
N1438      C1452   1.338       .  A
N1439      N1467   1.329       .  A
N1439     Co1457   2.069       .  S
H1440      C1463   1.065       .  S
H1441      C1458   1.082       .  S
N1443     Co1457   2.050   1_545  S
N1444      N1456   1.334       .  A
N1444      N1460   1.312       .  A
N1444     Co1453   2.114       .  S
C1445      N1449   1.333       .  A
C1445      C1459   1.480       .  S
C1445      C1725   1.500       .  S
C1446      C1465   1.471       .  S
C1446      H1450   1.070       .  S
N1447      C1458   1.318       .  A
N1447     Co1457   2.030       .  S
C1451      N1467   1.348       .  A
C1451      C1463   1.471       .  S
C1451      C1742   1.509       .  S
Co1453    Cl1464   2.507       .  S
N1454      C1465   1.349       .  A
C1455      C1697   1.494       .  S
Co1457    Cl1464   2.377       .  S
C1465      C1756   1.495       .  S
C1468      N1486   1.364       .  A
C1468      C1505   1.439       .  S
C1468      C1672   1.494       .  S
N1469      N1486   1.337       .  A
N1469      N1491   1.321       .  A
N1469     Co1506   2.128       .  S
C1470      N1495   1.347       .  A
C1470      C1508   1.477       .  S
C1470      H1515   1.069       .  S
H1471      C1512   1.073       .  S
C1472      N1496   1.338       .  A
C1472      C1476   1.446       .  S
C1472      H1501   1.080       .  S
Co1473     N1491   2.056       .  S
Co1473     N1481   2.075       .  S
Co1473     N1513   2.043   1_545  S
Co1473     N1489   2.081   1_545  S
Co1473    Cl1517   2.371       .  S
N1474      C1512   1.337       .  A
N1474      N1481   1.309       .  A
N1474     Co1475   2.082   1_545  S
Co1475     N1478   2.139   1_565  S
Co1475     N1495   2.120       .  S
Co1475     N1482   2.115       .  S
Co1475    Cl1517   2.492   1_565  S
C1476      N1514   1.364       .  A
C1476      C1781   1.504       .  S
N1477      N1484   1.323       .  A
N1477      N1507   1.314       .  A
N1477     Co1510   2.069   1_545  S
N1478      N1496   1.316       .  A
N1478      N1514   1.334       .  A
N1479      C1508   1.350       .  A
N1479      N1489   1.329       .  A
H1480      C1505   1.081       .  S
N1481      N1502   1.325       .  A
N1482      N1500   1.316       .  A
N1482      N1487   1.330       .  A
C1483      N1487   1.360       .  A
C1483      C1511   1.455       .  S
C1483      C1770   1.501       .  S
N1484      C1499   1.346       .  A
N1484     Co1506   2.087       .  S
C1485      N1513   1.320       .  A
C1485      C1488   1.438       .  S
C1485      H1519   1.081       .  S
C1488      N1509   1.358       .  A
C1488      C1644   1.480       .  S
N1489      N1495   1.315       .  A
N1490      C1516   1.359       .  A
N1490      N1492   1.325       .  A
N1490     Co1506   2.134   1_565  S
N1491      C1505   1.325       .  A
N1492      N1520   1.314       .  A
N1492     Co1510   2.055       .  S
H1493      C1516   1.081       .  S
H1494      C1511   1.081       .  S
N1496     Co1510   2.054   1_545  S
N1497      N1509   1.330       .  A
N1497      N1513   1.321       .  A
N1497     Co1506   2.099   1_565  S
C1498      N1502   1.354       .  A
C1498      C1512   1.479       .  S
C1498      C1865   1.523       .  S
C1499      C1518   1.472       .  S
C1499      H1503   1.081       .  S
N1500      C1511   1.341       .  A
N1500     Co1510   2.071       .  S
C1504      N1520   1.335       .  A
C1504      C1516   1.482       .  S
C1504      C1627   1.494       .  S
Co1506    Cl1517   2.526       .  S
N1507      C1518   1.336       .  A
C1508      C1851   1.514       .  S
Co1510    Cl1517   2.389   1_565  S
C1518      C1658   1.489       .  S
C1521      N1539   1.366       .  A
C1521      C1558   1.451       .  S
C1521      C1949   1.517       .  S
N1522      N1539   1.336       .  A
N1522      N1544   1.315       .  A
C1523      N1548   1.361       .  A
C1523      C1561   1.491       .  S
C1523      H1568   1.081       .  S
H1524      C1565   1.081       .  S
C1525      N1549   1.328       .  A
C1525      C1529   1.439       .  S
C1525      H1554   1.081       .  S
Co1526     N1544   2.057       .  S
Co1526     N1534   2.062       .  S
Co1526     N1566   2.055       .  S
Co1526     N1542   2.048       .  S
N1527      C1565   1.357       .  A
N1527      N1534   1.322       .  A
Co1528     N1531   2.139   1_455  S
Co1528     N1535   2.117   1_455  S
Co1528    Cl1570   2.527       .  S
C1529      N1567   1.364       .  A
C1529      C1714   1.489       .  S
N1530      N1537   1.311       .  A
N1530      N1560   1.327       .  A
N1530     Co1563   2.082       .  S
N1531      N1549   1.327       .  A
N1531      N1567   1.336       .  A
N1532      C1561   1.329       .  A
N1532      N1542   1.310       .  A
H1533      C1558   1.074       .  S
N1534      N1555   1.315       .  A
N1535      N1553   1.319       .  A
N1535      N1540   1.333       .  A
C1536      N1540   1.363       .  A
C1536      C1564   1.436       .  S
C1536      C1655   1.486       .  S
N1537      C1552   1.337       .  A
N1537     Co1559   2.062   1_655  S
C1538      N1566   1.340       .  A
C1538      C1541   1.444       .  S
C1538      H1572   1.078       .  S
C1541      N1562   1.345       .  A
C1541      C1938   1.476       .  S
N1542      N1548   1.323       .  A
N1543      C1569   1.348       .  A
N1543      N1545   1.315       .  A
N1543     Co1559   2.112   1_655  S
N1544      C1558   1.329       .  A
N1545      N1573   1.331       .  A
N1545     Co1563   2.095       .  S
H1546      C1569   1.075       .  S
H1547      C1564   1.081       .  S
N1549     Co1563   2.074       .  S
N1550      N1562   1.324       .  A
N1550      N1566   1.312       .  A
C1551      N1555   1.334       .  A
C1551      C1565   1.480       .  S
C1551      C1728   1.500       .  S
C1552      C1571   1.461       .  S
C1552      H1556   1.078       .  S
N1553      C1564   1.320       .  A
N1553     Co1563   2.032       .  S
C1557      N1573   1.354       .  A
C1557      C1569   1.472       .  S
C1557      C1826   1.524       .  S
Co1559    Cl1570   2.510       .  S
N1560      C1571   1.352       .  A
C1561      C1669   1.495       .  S
Co1563    Cl1570   2.370   1_655  S
C1571      C1840   1.491       .  S
C1574      N1592   1.360       .  A
C1574      C1611   1.444       .  S
C1574      C1700   1.489       .  S
N1575      N1592   1.335       .  A
N1575      N1597   1.326       .  A
N1575     Co1612   2.122       .  S
C1576      N1601   1.344       .  A
C1576      C1614   1.467       .  S
C1576      H1621   1.074       .  S
H1577      C1618   1.080       .  S
C1578      N1602   1.334       .  A
C1578      C1582   1.445       .  S
C1578      H1607   1.078       .  S
Co1579     N1597   2.071       .  S
Co1579     N1587   2.090       .  S
Co1579     N1619   2.047       .  S
Co1579     N1595   2.096       .  S
N1580      C1618   1.339       .  A
N1580      N1587   1.312       .  A
Co1581     N1584   2.123       .  S
Co1581     N1588   2.096       .  S
Co1581    Cl1623   2.492   1_655  S
C1582      N1620   1.363       .  A
C1582      C1812   1.504       .  S
N1583      N1590   1.320       .  A
N1583      N1613   1.307       .  A
N1583     Co1616   2.037       .  S
N1584      N1602   1.316       .  A
N1584      N1620   1.336       .  A
N1585      C1614   1.355       .  A
N1585      N1595   1.331       .  A
H1586      C1611   1.080       .  S
N1587      N1608   1.328       .  A
N1588      N1606   1.313       .  A
N1588      N1593   1.326       .  A
C1589      N1593   1.348       .  A
C1589      C1617   1.446       .  S
C1589      C1795   1.480       .  S
N1590      C1605   1.356       .  A
C1591      N1619   1.327       .  A
C1591      C1594   1.441       .  S
C1591      H1625   1.081       .  S
C1594      N1615   1.357       .  A
C1594      C1641   1.485       .  S
N1595      N1601   1.316       .  A
N1596      C1622   1.361       .  A
N1596      N1598   1.322       .  A
N1597      C1611   1.327       .  A
N1598      N1626   1.310       .  A
N1598     Co1616   2.044       .  S
H1599      C1622   1.081       .  S
H1600      C1617   1.079       .  S
N1602     Co1616   2.066       .  S
N1603      N1615   1.329       .  A
N1603      N1619   1.323       .  A
N1603     Co1612   2.104       .  S
C1604      N1608   1.355       .  A
C1604      C1618   1.470       .  S
C1604      C1924   1.512       .  S
C1605      C1624   1.478       .  S
C1605      H1609   1.081       .  S
N1606      C1617   1.340       .  A
N1606     Co1616   2.053       .  S
C1610      N1626   1.332       .  A
C1610      C1622   1.489       .  S
C1610      C1630   1.494       .  S
N1613      C1624   1.328       .  A
C1614      C1910   1.520       .  S
Co1616    Cl1623   2.383   1_655  S
C1624      C1683   1.473       .  S
C1627      C1628   1.420       .  A
C1627      C1632   1.414       .  A
C1628      C1629   1.424       .  A
C1628      C1633   1.448       .  S
C1629      C1630   1.411       .  A
C1629      C1636   1.446       .  S
C1630      C1631   1.415       .  A
C1631      C1632   1.407       .  A
C1631      C1634   1.453       .  S
C1632      C1635   1.454       .  S
C1633      N1640   1.157   1_565  T
C1634      N1639   1.157       .  T
C1635      N1637   1.157       .  T
C1636      N1638   1.157       .  T
C1641      C1642   1.403       .  A
C1641      C1646   1.426       .  A
C1642      C1643   1.405       .  A
C1642      C1647   1.452       .  S
C1643      C1644   1.423       .  A
C1643      C1650   1.450       .  S
C1644      C1645   1.399       .  A
C1645      C1646   1.407       .  A
C1645      C1648   1.451       .  S
C1646      C1649   1.449       .  S
C1647      N1654   1.157       .  T
C1648      N1653   1.157       .  T
C1649      N1651   1.157       .  T
C1650      N1652   1.156   1_565  T
C1655      C1656   1.402       .  A
C1655      C1660   1.426       .  A
C1656      C1657   1.409       .  A
C1656      C1661   1.451       .  S
C1657      C1658   1.428       .  A
C1657      C1664   1.452       .  S
C1658      C1659   1.406       .  A
C1659      C1660   1.406       .  A
C1659      C1662   1.452       .  S
C1660      C1663   1.453       .  S
C1661      N1668   1.157       .  T
C1662      N1667   1.157       .  T
C1663      N1665   1.157       .  T
C1664      N1666   1.158       .  T
C1669      C1670   1.419       .  A
C1669      C1674   1.417       .  A
C1670      C1671   1.408       .  A
C1670      C1675   1.453       .  S
C1671      C1672   1.406       .  A
C1671      C1678   1.450       .  S
C1672      C1673   1.414       .  A
C1673      C1674   1.425       .  A
C1673      C1676   1.445       .  S
C1674      C1677   1.446       .  S
C1675      N1682   1.157       .  T
C1676      N1681   1.156       .  T
C1677      N1679   1.156       .  T
C1678      N1680   1.156       .  T
C1683      C1684   1.410       .  A
C1683      C1688   1.409       .  A
C1684      C1685   1.417       .  A
C1684      C1689   1.444       .  S
C1685      C1686   1.413       .  A
C1685      C1692   1.445       .  S
C1686      C1687   1.419       .  A
C1687      C1688   1.405       .  A
C1687      C1690   1.450       .  S
C1688      C1691   1.455       .  S
C1689      N1696   1.155       .  T
C1690      N1695   1.156       .  T
C1691      N1693   1.157       .  T
C1692      N1694   1.156       .  T
C1697      C1698   1.416       .  A
C1697      C1702   1.411       .  A
C1698      C1699   1.426       .  A
C1698      C1703   1.445       .  S
C1699      C1700   1.416       .  A
C1699      C1706   1.444       .  S
C1700      C1701   1.400       .  A
C1701      C1702   1.401       .  A
C1701      C1704   1.448       .  S
C1702      C1705   1.445       .  S
C1703      N1710   1.156       .  T
C1704      N1709   1.157       .  T
C1705      N1707   1.155       .  T
C1706      N1708   1.156       .  T
C1711      C1712   1.413       .  A
C1711      C1716   1.422       .  A
C1712      C1713   1.421       .  A
C1712      C1717   1.447       .  S
C1713      C1714   1.415       .  A
C1713      C1720   1.446       .  S
C1714      C1715   1.406       .  A
C1715      C1716   1.409       .  A
C1715      C1718   1.450       .  S
C1716      C1719   1.454       .  S
C1717      N1724   1.157       .  T
C1718      N1723   1.156       .  T
C1719      N1721   1.158       .  T
C1720      N1722   1.156       .  T
C1725      C1726   1.403       .  A
C1725      C1730   1.429       .  A
C1726      C1727   1.414       .  A
C1726      C1731   1.450       .  S
C1727      C1728   1.428       .  A
C1727      C1734   1.450       .  S
C1728      C1729   1.405       .  A
C1729      C1730   1.414       .  A
C1729      C1732   1.451       .  S
C1730      C1733   1.451       .  S
C1731      N1738   1.157       .  T
C1732      N1737   1.157       .  T
C1733      N1735   1.157   1_545  T
C1734      N1736   1.157       .  T
C1739      C1740   1.414       .  A
C1739      C1744   1.420       .  A
C1740      C1741   1.423       .  A
C1740      C1745   1.449       .  S
C1741      C1742   1.416       .  A
C1741      C1748   1.448       .  S
C1742      C1743   1.411       .  A
C1743      C1744   1.422       .  A
C1743      C1746   1.449       .  S
C1744      C1747   1.447       .  S
C1745      N1752   1.157       .  T
C1746      N1751   1.157       .  T
C1747      N1749   1.156       .  T
C1748      N1750   1.157       .  T
C1753      C1754   1.410       .  A
C1753      C1758   1.415       .  A
C1754      C1755   1.415       .  A
C1754      C1759   1.444       .  S
C1755      C1756   1.412       .  A
C1755      C1762   1.448       .  S
C1756      C1757   1.409       .  A
C1757      C1758   1.418       .  A
C1757      C1760   1.447       .  S
C1758      C1761   1.447       .  S
C1759      N1766   1.156       .  T
C1760      N1765   1.157       .  T
C1761      N2417   1.157       .  T
C1762      N1764   1.156       .  T
N1763      C2415   1.157       .  T
C1767      C1768   1.422       .  A
C1767      C1772   1.410       .  A
C1768      C1769   1.419       .  A
C1768      C1773   1.446       .  S
C1769      C1770   1.409       .  A
C1769      C1776   1.451       .  S
C1770      C1771   1.410       .  A
C1771      C1772   1.418       .  A
C1771      C1774   1.441       .  S
C1772      C1775   1.445       .  S
C1773      N1780   1.156       .  T
C1774      N1779   1.154       .  T
C1775      N1777   1.156       .  T
C1776      N1778   1.157       .  T
C1781      C1782   1.415       .  A
C1781      C1786   1.414       .  A
C1782      C1783   1.418       .  A
C1782      C1787   1.449       .  S
C1783      C1784   1.417       .  A
C1783      C1790   1.449       .  S
C1784      C1785   1.411       .  A
C1785      C1786   1.420       .  A
C1785      C1788   1.448       .  S
C1786      C1789   1.448       .  S
C1787      N1794   1.157       .  T
C1788      N1793   1.157       .  T
C1789      N1791   1.157       .  T
C1790      N1792   1.157       .  T
C1795      C1796   1.398       .  A
C1795      C1800   1.416       .  A
C1796      C1797   1.404       .  A
C1796      C1801   1.456       .  S
C1797      C1798   1.432       .  A
C1797      C1804   1.452       .  S
C1798      C1799   1.411       .  A
C1799      C1800   1.420       .  A
C1799      C1802   1.448       .  S
C1800      C1803   1.450       .  S
C1801      N1808   1.157       .  T
C1802      N1807   1.157       .  T
C1803      N1805   1.157       .  T
C1804      N1806   1.157       .  T
C1809      C1810   1.411       .  A
C1809      C1814   1.421       .  A
C1810      C1811   1.426       .  A
C1810      C1815   1.447       .  S
C1811      C1812   1.418       .  A
C1811      C1818   1.439       .  S
C1812      C1813   1.412       .  A
C1813      C1814   1.406       .  A
C1813      C1816   1.453       .  S
C1814      C1817   1.453       .  S
C1816      N1821   1.157       .  T
C1817      N1819   1.157       .  T
C1823      C1824   1.406       .  A
C1823      C1828   1.408       .  A
C1824      C1825   1.420       .  A
C1824      C1829   1.451       .  S
C1825      C1826   1.426       .  A
C1825      C1832   1.444       .  S
C1826      C1827   1.420       .  A
C1827      C1828   1.419       .  A
C1827      C1830   1.443       .  S
C1828      C1831   1.445       .  S
C1829      N1836   1.157       .  T
C1830      N1835   1.156       .  T
C1831      N1833   1.156       .  T
C1832      N1834   1.156       .  T
C1837      C1838   1.406       .  A
C1837      C1842   1.407       .  A
C1838      C1839   1.418       .  A
C1838      C1843   1.446       .  S
C1839      C1840   1.420       .  A
C1839      C1846   1.447       .  S
C1840      C1841   1.410       .  A
C1841      C1842   1.408       .  A
C1841      C1844   1.451       .  S
C1842      C1845   1.435       .  S
C1843      N1850   1.157       .  T
C1844      N1849   1.157       .  T
C1845      N1847   1.152       .  T
C1846      N1848   1.157       .  T
C1851      C1852   1.414       .  A
C1851      C1856   1.424       .  A
C1852      C1853   1.421       .  A
C1852      C2511   1.447       .  S
C1853      C1854   1.412       .  A
C1853      C1860   1.448       .  S
C1854      C1855   1.406       .  A
C1855      C1856   1.417       .  A
C1855      C1858   1.452       .  S
C1856      C1859   1.446       .  S
C1857      C2506   1.447       .  S
C1857      N1864   1.157   1_556  T
C1858      N1863   1.157       .  T
C1859      N1861   1.156       .  T
C1860      N2516   1.157       .  T
N1862      C2514   1.157   1_554  T
C1865      C1866   1.421       .  A
C1865      C1870   1.416       .  A
C1866      C1867   1.424       .  A
C1866      C1871   1.452       .  S
C1867      C1868   1.424       .  A
C1867      C1874   1.449       .  S
C1868      C1869   1.421       .  A
C1869      C1870   1.413       .  A
C1869      C1872   1.442       .  S
C1870      C1873   1.445       .  S
C1871      N1878   1.158       .  T
C1872      N1877   1.154       .  T
C1873      N1875   1.154       .  T
C1874      N1876   1.157       .  T
C1879      C1880   1.414       .  A
C1879      C1884   1.416       .  A
C1880      C1881   1.418       .  A
C1880      C1885   1.443       .  S
C1881      C1882   1.421       .  A
C1881      C1888   1.446       .  S
C1882      C1883   1.420       .  A
C1883      C1884   1.417       .  A
C1883      C1886   1.445       .  S
C1884      C1887   1.449       .  S
C1885      N1892   1.155   1_554  T
C1886      N1891   1.157       .  T
C1887      N1889   1.157       .  T
C1888      N1890   1.155       .  T
C1893      C1894   1.424       .  A
C1893      C1898   1.415       .  A
C1894      C1895   1.418       .  A
C1894      C1899   1.448       .  S
C1895      C1896   1.407       .  A
C1895      C1902   1.451       .  S
C1896      C1897   1.414       .  A
C1897      C1898   1.425       .  A
C1897      C1900   1.450       .  S
C1898      C1901   1.448       .  S
C1899      N1906   1.157       .  T
C1900      N2559   1.157   1_554  T
C1901      N2557   1.157       .  T
C1902      N1904   1.157       .  T
N1903      C2555   1.157       .  T
N1905      C2554   1.157       .  T
C1907      C1908   1.408       .  A
C1907      C1912   1.408       .  A
C1908      C1909   1.419       .  A
C1908      C1913   1.451       .  S
C1909      C1910   1.425       .  A
C1909      C1916   1.446       .  S
C1910      C1911   1.421       .  A
C1911      C1912   1.415       .  A
C1911      C1914   1.443       .  S
C1912      C1915   1.448       .  S
C1913      N1920   1.157       .  T
C1915      N1917   1.156       .  T
C1916      N1918   1.156       .  T
C1921      C1922   1.410       .  A
C1921      C1926   1.408       .  A
C1922      C1923   1.416       .  A
C1922      C1927   1.449       .  S
C1923      C1924   1.415       .  A
C1923      C1930   1.443       .  S
C1924      C1925   1.412       .  A
C1925      C1926   1.413       .  A
C1925      C1928   1.442       .  S
C1926      C1929   1.443       .  S
C1927      N1934   1.157       .  T
C1928      N1933   1.155       .  T
C1929      N1931   1.155       .  T
C1930      N1932   1.156       .  T
C1935      C1936   1.410       .  A
C1935      C1940   1.434       .  A
C1936      C1937   1.418       .  A
C1936      C1941   1.449       .  S
C1937      C1938   1.415       .  A
C1937      C1944   1.448       .  S
C1938      C1939   1.395       .  A
C1939      C1940   1.403       .  A
C1939      C1942   1.457       .  S
C1940      C1943   1.447       .  S
C1941      N1948   1.157       .  T
C1942      N1947   1.157       .  T
C1943      N1945   1.155       .  T
C1944      N1946   1.157       .  T
C1949      C1950   1.427       .  A
C1949      C1954   1.423       .  A
C1950      C1951   1.408       .  A
C1950      C1955   1.451       .  S
C1951      C1952   1.405       .  A
C1951      C1958   1.454       .  S
C1952      C1953   1.401       .  A
C1953      C1954   1.418       .  A
C1953      C1956   1.448       .  S
C1954      C1957   1.434       .  S
C1955      N1962   1.158       .  T
C1958      N1960   1.157       .  T
C1963      N1981   1.357       .  A
C1963      C2000   1.452       .  S
C1963      C2550   1.503       .  S
N1964      N1981   1.332       .  A
N1964      N1986   1.317       .  A
C1965      N1990   1.357       .  A
C1965      C2003   1.483       .  S
C1965      H2010   1.081       .  S
H1966      C2007   1.081       .  S
C1967      N1991   1.323       .  A
C1967      C1971   1.440       .  S
C1967      H1996   1.078       .  S
Co1968     N1986   2.083       .  S
Co1968     N1976   2.074       .  S
Co1968     N2008   2.086       .  S
Co1968     N1984   2.061       .  S
Co1968    Cl2012   2.382       .  S
N1969      C2007   1.353       .  A
N1969      N1976   1.322       .  A
N1969     Co1970   2.107       .  S
Co1970     N1990   2.134       .  S
Co1970    Cl2012   2.537       .  S
C1971      N2009   1.368       .  A
C1971      C2589   1.503       .  S
N1972      N1979   1.306       .  A
N1972      N2002   1.329       .  A
N1972     Co2005   2.092       .  S
N1973      N1991   1.314       .  A
N1973      N2009   1.334       .  A
N1974      C2003   1.336       .  A
N1974      N1984   1.313       .  A
H1975      C2000   1.078       .  S
N1976      N1997   1.312       .  A
N1977      N1995   1.320       .  A
N1977      N1982   1.332       .  A
C1978      N1982   1.362       .  A
C1978      C2006   1.447       .  S
C1978      C2561   1.493       .  S
N1979      C1994   1.334       .  A
N1979     Co2001   2.068   1_556  S
C1980      N2008   1.339       .  A
C1980      C1983   1.477       .  S
C1980      H2014   1.072       .  S
C1983      N2004   1.357       .  A
C1983      C2536   1.525       .  S
N1984      N1990   1.323       .  A
N1985      C2011   1.343       .  A
N1985      N1987   1.314       .  A
N1985     Co2001   2.101   1_556  S
N1986      C2000   1.344       .  A
N1987      N2015   1.328       .  A
N1987     Co2005   2.074       .  S
H1988      C2011   1.056       .  S
H1989      C2006   1.080       .  S
N1991     Co2005   2.050       .  S
N1992      N2004   1.327       .  A
N1992      N2008   1.311       .  A
C1993      N1997   1.340       .  A
C1993      C2007   1.479       .  S
C1993      C2606   1.487       .  S
C1994      C2013   1.476       .  S
C1994      H1998   1.071       .  S
N1995      C2006   1.335       .  A
N1995     Co2005   2.104       .  S
C1999      N2015   1.345       .  A
C1999      C2011   1.463       .  S
C1999      C2508   1.499       .  S
N2002      C2013   1.359       .  A
C2003      C2575   1.489       .  S
C2013      C2522   1.529       .  S
C2016      N2034   1.367       .  A
C2016      C2053   1.447       .  S
C2016      C2491   1.491       .  S
N2017      N2034   1.333       .  A
N2017      N2039   1.320       .  A
N2017     Co2054   2.140       .  S
C2018      N2043   1.343       .  A
C2018      C2056   1.466       .  S
C2018      H2063   1.068       .  S
H2019      C2060   1.069       .  S
C2020      N2044   1.343       .  A
C2020      C2024   1.461       .  S
C2020      H2049   1.080       .  S
Co2021     N2039   2.054       .  S
Co2021     N2029   2.072       .  S
Co2021     N2061   2.026       .  S
Co2021     N2037   2.097       .  S
Co2021    Cl2065   2.380       .  S
N2022      C2060   1.342       .  A
N2022      N2029   1.314       .  A
Co2023     N2026   2.112   1_554  S
Co2023     N2030   2.121   1_554  S
C2024      N2062   1.355       .  A
C2024      C2438   1.503       .  S
N2025      N2032   1.325       .  A
N2025      N2055   1.321       .  A
N2025     Co2058   2.095       .  S
N2026      N2044   1.317       .  A
N2026      N2062   1.330       .  A
N2027      C2056   1.354       .  A
N2027      N2037   1.331       .  A
H2028      C2053   1.082       .  S
N2029      N2050   1.328       .  A
N2030      N2048   1.315       .  A
N2030      N2035   1.334       .  A
C2031      N2035   1.359       .  A
C2031      C2059   1.451       .  S
C2031      C2421   1.507       .  S
N2032      C2047   1.354       .  A
C2033      N2061   1.310       .  A
C2033      C2036   1.437       .  S
C2033      H2067   1.080       .  S
C2036      N2057   1.378       .  A
C2036      C2463   1.512       .  S
N2037      N2043   1.312       .  A
N2038      C2064   1.359       .  A
N2038      N2040   1.321       .  A
N2039      C2053   1.329       .  A
N2040      N2068   1.311       .  A
N2040     Co2058   2.064       .  S
H2041      C2064   1.081       .  S
H2042      C2059   1.078       .  S
N2044     Co2058   2.082       .  S
N2045      N2057   1.345       .  A
N2045      N2061   1.318       .  A
N2045     Co2054   2.156       .  S
C2046      N2050   1.349       .  A
C2046      C2060   1.463       .  S
C2046      C2407   1.498       .  S
C2047      C2066   1.479       .  S
C2047      H2051   1.081       .  S
N2048      C2059   1.343       .  A
N2048     Co2058   2.079       .  S
C2052      N2068   1.331       .  A
C2052      C2064   1.488       .  S
C2052      C2452   1.503       .  S
Co2054    Cl2065   2.535       .  S
N2055      C2066   1.343       .  A
C2056      C2393   1.513       .  S
C2066      C2477   1.498       .  S
C2069      N2087   1.370       .  A
C2069      C2106   1.450       .  S
C2069      C2547   1.515       .  S
N2070      N2087   1.339       .  A
N2070      N2092   1.316       .  A
N2070     Co2107   2.151   1_545  S
C2071      N2096   1.361       .  A
C2071      C2109   1.483       .  S
C2071      H2116   1.081       .  S
H2072      C2113   1.081       .  S
C2073      N2097   1.320       .  A
C2073      C2077   1.442       .  S
C2073      H2102   1.081       .  S
Co2074     N2092   2.064       .  S
Co2074     N2082   2.063       .  S
Co2074     N2114   2.073   1_545  S
Co2074     N2090   2.061   1_545  S
Co2074    Cl2118   2.367   1_545  S
N2075      C2113   1.356       .  A
N2075      N2082   1.325       .  A
N2075     Co2076   2.119   1_545  S
Co2076     N2079   2.144   1_565  S
Co2076     N2096   2.123       .  S
Co2076     N2083   2.130       .  S
Co2076    Cl2118   2.535       .  S
C2077      N2115   1.371       .  A
C2077      C2365   1.506       .  S
N2078      N2085   1.312       .  A
N2078      N2108   1.326       .  A
N2078     Co2111   2.068   1_545  S
N2079      N2097   1.322       .  A
N2079      N2115   1.338       .  A
N2080      C2109   1.332       .  A
N2080      N2090   1.309       .  A
H2081      C2106   1.080       .  S
N2082      N2103   1.314       .  A
N2083      N2101   1.319       .  A
N2083      N2088   1.335       .  A
C2084      N2088   1.367       .  A
C2084      C2112   1.436       .  S
C2084      C2340   1.494       .  S
N2085      C2100   1.339       .  A
N2085     Co2107   2.092   1_545  S
C2086      N2114   1.337       .  A
C2086      C2089   1.466       .  S
C2086      H2120   1.076       .  S
C2089      N2110   1.361       .  A
C2089      C2533   1.521       .  S
N2090      N2096   1.324       .  A
N2091      C2117   1.344       .  A
N2091      N2093   1.314       .  A
N2091     Co2107   2.118       .  S
N2092      C2106   1.338       .  A
N2093      N2121   1.329       .  A
N2093     Co2111   2.069       .  S
H2094      C2117   1.065       .  S
H2095      C2112   1.082       .  S
N2097     Co2111   2.050   1_545  S
N2098      N2110   1.334       .  A
N2098      N2114   1.312       .  A
N2098     Co2107   2.114       .  S
C2099      N2103   1.333       .  A
C2099      C2113   1.480       .  S
C2099      C2379   1.500       .  S
C2100      C2119   1.471       .  S
C2100      H2104   1.070       .  S
N2101      C2112   1.318       .  A
N2101     Co2111   2.030       .  S
C2105      N2121   1.348       .  A
C2105      C2117   1.471       .  S
C2105      C2396   1.509       .  S
Co2107    Cl2118   2.507       .  S
N2108      C2119   1.349       .  A
C2109      C2351   1.494       .  S
Co2111    Cl2118   2.377       .  S
C2119      C2410   1.495       .  S
C2122      N2140   1.364       .  A
C2122      C2159   1.439       .  S
C2122      C2326   1.494       .  S
N2123      N2140   1.337       .  A
N2123      N2145   1.321       .  A
N2123     Co2160   2.128       .  S
C2124      N2149   1.347       .  A
C2124      C2162   1.477       .  S
C2124      H2169   1.069       .  S
H2125      C2166   1.073       .  S
C2126      N2150   1.338       .  A
C2126      C2130   1.446       .  S
C2126      H2155   1.080       .  S
Co2127     N2145   2.056       .  S
Co2127     N2135   2.075       .  S
Co2127     N2167   2.043   1_545  S
Co2127     N2143   2.081   1_545  S
Co2127    Cl2171   2.371       .  S
N2128      C2166   1.337       .  A
N2128      N2135   1.309       .  A
N2128     Co2129   2.082   1_545  S
Co2129     N2132   2.139   1_565  S
Co2129     N2149   2.120       .  S
Co2129     N2136   2.115       .  S
Co2129    Cl2171   2.492   1_565  S
C2130      N2168   1.364       .  A
C2130      C2435   1.504       .  S
N2131      N2138   1.323       .  A
N2131      N2161   1.314       .  A
N2131     Co2164   2.069   1_545  S
N2132      N2150   1.316       .  A
N2132      N2168   1.334       .  A
N2133      C2162   1.350       .  A
N2133      N2143   1.329       .  A
H2134      C2159   1.081       .  S
N2135      N2156   1.325       .  A
N2136      N2154   1.316       .  A
N2136      N2141   1.330       .  A
C2137      N2141   1.360       .  A
C2137      C2165   1.455       .  S
C2137      C2424   1.501       .  S
N2138      C2153   1.346       .  A
N2138     Co2160   2.087       .  S
C2139      N2167   1.320       .  A
C2139      C2142   1.438       .  S
C2139      H2173   1.081       .  S
C2142      N2163   1.358       .  A
C2142      C2298   1.480       .  S
N2143      N2149   1.315       .  A
N2144      C2170   1.359       .  A
N2144      N2146   1.325       .  A
N2144     Co2160   2.134   1_565  S
N2145      C2159   1.325       .  A
N2146      N2174   1.314       .  A
N2146     Co2164   2.055       .  S
H2147      C2170   1.081       .  S
H2148      C2165   1.081       .  S
N2150     Co2164   2.054   1_545  S
N2151      N2163   1.330       .  A
N2151      N2167   1.321       .  A
N2151     Co2160   2.099   1_565  S
C2152      N2156   1.354       .  A
C2152      C2166   1.479       .  S
C2152      C2519   1.523       .  S
C2153      C2172   1.472       .  S
C2153      H2157   1.081       .  S
N2154      C2165   1.341       .  A
N2154     Co2164   2.071       .  S
C2158      N2174   1.335       .  A
C2158      C2170   1.482       .  S
C2158      C2281   1.494       .  S
Co2160    Cl2171   2.526       .  S
N2161      C2172   1.336       .  A
C2162      C2505   1.514       .  S
Co2164    Cl2171   2.389   1_565  S
C2172      C2312   1.489       .  S
C2175      N2193   1.366       .  A
C2175      C2212   1.451       .  S
C2175      C2603   1.517       .  S
N2176      N2193   1.336       .  A
N2176      N2198   1.315       .  A
C2177      N2202   1.361       .  A
C2177      C2215   1.491       .  S
C2177      H2222   1.081       .  S
H2178      C2219   1.081       .  S
C2179      N2203   1.328       .  A
C2179      C2183   1.439       .  S
C2179      H2208   1.081       .  S
Co2180     N2198   2.057       .  S
Co2180     N2188   2.062       .  S
Co2180     N2220   2.055       .  S
Co2180     N2196   2.048       .  S
N2181      C2219   1.357       .  A
N2181      N2188   1.322       .  A
Co2182     N2185   2.139   1_455  S
Co2182     N2189   2.117   1_455  S
Co2182    Cl2224   2.527       .  S
C2183      N2221   1.364       .  A
C2183      C2368   1.489       .  S
N2184      N2191   1.311       .  A
N2184      N2214   1.327       .  A
N2184     Co2217   2.082       .  S
N2185      N2203   1.327       .  A
N2185      N2221   1.336       .  A
N2186      C2215   1.329       .  A
N2186      N2196   1.310       .  A
H2187      C2212   1.074       .  S
N2188      N2209   1.315       .  A
N2189      N2207   1.319       .  A
N2189      N2194   1.333       .  A
C2190      N2194   1.363       .  A
C2190      C2218   1.436       .  S
C2190      C2309   1.486       .  S
N2191      C2206   1.337       .  A
N2191     Co2213   2.062   1_655  S
C2192      N2220   1.340       .  A
C2192      C2195   1.444       .  S
C2192      H2226   1.078       .  S
C2195      N2216   1.345       .  A
C2195      C2592   1.476       .  S
N2196      N2202   1.323       .  A
N2197      C2223   1.348       .  A
N2197      N2199   1.315       .  A
N2197     Co2213   2.112   1_655  S
N2198      C2212   1.329       .  A
N2199      N2227   1.331       .  A
N2199     Co2217   2.095       .  S
H2200      C2223   1.075       .  S
H2201      C2218   1.081       .  S
N2203     Co2217   2.074       .  S
N2204      N2216   1.324       .  A
N2204      N2220   1.312       .  A
C2205      N2209   1.334       .  A
C2205      C2219   1.480       .  S
C2205      C2382   1.500       .  S
C2206      C2225   1.461       .  S
C2206      H2210   1.078       .  S
N2207      C2218   1.320       .  A
N2207     Co2217   2.032       .  S
C2211      N2227   1.354       .  A
C2211      C2223   1.472       .  S
C2211      C2480   1.524       .  S
Co2213    Cl2224   2.510       .  S
N2214      C2225   1.352       .  A
C2215      C2323   1.495       .  S
Co2217    Cl2224   2.370   1_655  S
C2225      C2494   1.491       .  S
C2228      N2246   1.360       .  A
C2228      C2265   1.444       .  S
C2228      C2354   1.489       .  S
N2229      N2246   1.335       .  A
N2229      N2251   1.326       .  A
N2229     Co2266   2.122       .  S
C2230      N2255   1.344       .  A
C2230      C2268   1.467       .  S
C2230      H2275   1.074       .  S
H2231      C2272   1.080       .  S
C2232      N2256   1.334       .  A
C2232      C2236   1.445       .  S
C2232      H2261   1.078       .  S
Co2233     N2251   2.071       .  S
Co2233     N2241   2.090       .  S
Co2233     N2273   2.047       .  S
Co2233     N2249   2.096       .  S
N2234      C2272   1.339       .  A
N2234      N2241   1.312       .  A
Co2235     N2238   2.123       .  S
Co2235     N2242   2.096       .  S
Co2235    Cl2277   2.492   1_655  S
C2236      N2274   1.363       .  A
C2236      C2466   1.504       .  S
N2237      N2244   1.320       .  A
N2237      N2267   1.307       .  A
N2237     Co2270   2.037       .  S
N2238      N2256   1.316       .  A
N2238      N2274   1.336       .  A
N2239      C2268   1.355       .  A
N2239      N2249   1.331       .  A
H2240      C2265   1.080       .  S
N2241      N2262   1.328       .  A
N2242      N2260   1.313       .  A
N2242      N2247   1.326       .  A
C2243      N2247   1.348       .  A
C2243      C2271   1.446       .  S
C2243      C2449   1.480       .  S
N2244      C2259   1.356       .  A
C2245      N2273   1.327       .  A
C2245      C2248   1.441       .  S
C2245      H2279   1.081       .  S
C2248      N2269   1.357       .  A
C2248      C2295   1.485       .  S
N2249      N2255   1.316       .  A
N2250      C2276   1.361       .  A
N2250      N2252   1.322       .  A
N2251      C2265   1.327       .  A
N2252      N2280   1.310       .  A
N2252     Co2270   2.044       .  S
H2253      C2276   1.081       .  S
H2254      C2271   1.079       .  S
N2256     Co2270   2.066       .  S
N2257      N2269   1.329       .  A
N2257      N2273   1.323       .  A
N2257     Co2266   2.104       .  S
C2258      N2262   1.355       .  A
C2258      C2272   1.470       .  S
C2258      C2578   1.512       .  S
C2259      C2278   1.478       .  S
C2259      H2263   1.081       .  S
N2260      C2271   1.340       .  A
N2260     Co2270   2.053       .  S
C2264      N2280   1.332       .  A
C2264      C2276   1.489       .  S
C2264      C2284   1.494       .  S
N2267      C2278   1.328       .  A
C2268      C2564   1.520       .  S
Co2270    Cl2277   2.383   1_655  S
C2278      C2337   1.473       .  S
C2281      C2282   1.420       .  A
C2281      C2286   1.414       .  A
C2282      C2283   1.424       .  A
C2282      C2287   1.448       .  S
C2283      C2284   1.411       .  A
C2283      C2290   1.446       .  S
C2284      C2285   1.415       .  A
C2285      C2286   1.407       .  A
C2285      C2288   1.453       .  S
C2286      C2289   1.454       .  S
C2287      N2294   1.157   1_565  T
C2288      N2293   1.157       .  T
C2289      N2291   1.157       .  T
C2290      N2292   1.157       .  T
C2295      C2296   1.403       .  A
C2295      C2300   1.426       .  A
C2296      C2297   1.405       .  A
C2296      C2301   1.452       .  S
C2297      C2298   1.423       .  A
C2297      C2304   1.450       .  S
C2298      C2299   1.399       .  A
C2299      C2300   1.407       .  A
C2299      C2302   1.451       .  S
C2300      C2303   1.449       .  S
C2301      N2308   1.157       .  T
C2302      N2307   1.157       .  T
C2303      N2305   1.157       .  T
C2304      N2306   1.156   1_565  T
C2309      C2310   1.402       .  A
C2309      C2314   1.426       .  A
C2310      C2311   1.409       .  A
C2310      C2315   1.451       .  S
C2311      C2312   1.428       .  A
C2311      C2318   1.452       .  S
C2312      C2313   1.406       .  A
C2313      C2314   1.406       .  A
C2313      C2316   1.452       .  S
C2314      C2317   1.453       .  S
C2315      N2322   1.157       .  T
C2316      N2321   1.157       .  T
C2317      N2319   1.157       .  T
C2318      N2320   1.158       .  T
C2323      C2324   1.419       .  A
C2323      C2328   1.417       .  A
C2324      C2325   1.408       .  A
C2324      C2329   1.453       .  S
C2325      C2326   1.406       .  A
C2325      C2332   1.450       .  S
C2326      C2327   1.414       .  A
C2327      C2328   1.425       .  A
C2327      C2330   1.445       .  S
C2328      C2331   1.446       .  S
C2329      N2336   1.157       .  T
C2330      N2335   1.156       .  T
C2331      N2333   1.156       .  T
C2332      N2334   1.156       .  T
C2337      C2338   1.410       .  A
C2337      C2342   1.409       .  A
C2338      C2339   1.417       .  A
C2338      C2343   1.444       .  S
C2339      C2340   1.413       .  A
C2339      C2346   1.445       .  S
C2340      C2341   1.419       .  A
C2341      C2342   1.405       .  A
C2341      C2344   1.450       .  S
C2342      C2345   1.455       .  S
C2343      N2350   1.155       .  T
C2344      N2349   1.156       .  T
C2345      N2347   1.157       .  T
C2346      N2348   1.156       .  T
C2351      C2352   1.416       .  A
C2351      C2356   1.411       .  A
C2352      C2353   1.426       .  A
C2352      C2357   1.445       .  S
C2353      C2354   1.416       .  A
C2353      C2360   1.444       .  S
C2354      C2355   1.400       .  A
C2355      C2356   1.401       .  A
C2355      C2358   1.448       .  S
C2356      C2359   1.445       .  S
C2357      N2364   1.156       .  T
C2358      N2363   1.157       .  T
C2359      N2361   1.155       .  T
C2360      N2362   1.156       .  T
C2365      C2366   1.413       .  A
C2365      C2370   1.422       .  A
C2366      C2367   1.421       .  A
C2366      C2371   1.447       .  S
C2367      C2368   1.415       .  A
C2367      C2374   1.446       .  S
C2368      C2369   1.406       .  A
C2369      C2370   1.409       .  A
C2369      C2372   1.450       .  S
C2370      C2373   1.454       .  S
C2371      N2378   1.157       .  T
C2372      N2377   1.156       .  T
C2373      N2375   1.158       .  T
C2374      N2376   1.156       .  T
C2379      C2380   1.403       .  A
C2379      C2384   1.429       .  A
C2380      C2381   1.414       .  A
C2380      C2385   1.450       .  S
C2381      C2382   1.428       .  A
C2381      C2388   1.450       .  S
C2382      C2383   1.405       .  A
C2383      C2384   1.414       .  A
C2383      C2386   1.451       .  S
C2384      C2387   1.451       .  S
C2385      N2392   1.157       .  T
C2386      N2391   1.157       .  T
C2387      N2389   1.157   1_545  T
C2388      N2390   1.157       .  T
C2393      C2394   1.414       .  A
C2393      C2398   1.420       .  A
C2394      C2395   1.423       .  A
C2394      C2399   1.449       .  S
C2395      C2396   1.416       .  A
C2395      C2402   1.448       .  S
C2396      C2397   1.411       .  A
C2397      C2398   1.422       .  A
C2397      C2400   1.449       .  S
C2398      C2401   1.447       .  S
C2399      N2406   1.157       .  T
C2400      N2405   1.157       .  T
C2401      N2403   1.156       .  T
C2402      N2404   1.157       .  T
C2407      C2408   1.410       .  A
C2407      C2412   1.415       .  A
C2408      C2409   1.415       .  A
C2408      C2413   1.444       .  S
C2409      C2410   1.412       .  A
C2409      C2416   1.448       .  S
C2410      C2411   1.409       .  A
C2411      C2412   1.418       .  A
C2411      C2414   1.447       .  S
C2412      C2415   1.447       .  S
C2413      N2420   1.156       .  T
C2414      N2419   1.157       .  T
C2416      N2418   1.156       .  T
C2421      C2422   1.422       .  A
C2421      C2426   1.410       .  A
C2422      C2423   1.419       .  A
C2422      C2427   1.446       .  S
C2423      C2424   1.409       .  A
C2423      C2430   1.451       .  S
C2424      C2425   1.410       .  A
C2425      C2426   1.418       .  A
C2425      C2428   1.441       .  S
C2426      C2429   1.445       .  S
C2427      N2434   1.156       .  T
C2428      N2433   1.154       .  T
C2429      N2431   1.156       .  T
C2430      N2432   1.157       .  T
C2435      C2436   1.415       .  A
C2435      C2440   1.414       .  A
C2436      C2437   1.418       .  A
C2436      C2441   1.449       .  S
C2437      C2438   1.417       .  A
C2437      C2444   1.449       .  S
C2438      C2439   1.411       .  A
C2439      C2440   1.420       .  A
C2439      C2442   1.448       .  S
C2440      C2443   1.448       .  S
C2441      N2448   1.157       .  T
C2442      N2447   1.157       .  T
C2443      N2445   1.157       .  T
C2444      N2446   1.157       .  T
C2449      C2450   1.398       .  A
C2449      C2454   1.416       .  A
C2450      C2451   1.404       .  A
C2450      C2455   1.456       .  S
C2451      C2452   1.432       .  A
C2451      C2458   1.452       .  S
C2452      C2453   1.411       .  A
C2453      C2454   1.420       .  A
C2453      C2456   1.448       .  S
C2454      C2457   1.450       .  S
C2455      N2462   1.157       .  T
C2456      N2461   1.157       .  T
C2457      N2459   1.157       .  T
C2458      N2460   1.157       .  T
C2463      C2464   1.411       .  A
C2463      C2468   1.421       .  A
C2464      C2465   1.426       .  A
C2464      C2469   1.447       .  S
C2465      C2466   1.418       .  A
C2465      C2472   1.439       .  S
C2466      C2467   1.412       .  A
C2467      C2468   1.406       .  A
C2467      C2470   1.453       .  S
C2468      C2471   1.453       .  S
C2470      N2475   1.157       .  T
C2471      N2473   1.157       .  T
C2477      C2478   1.406       .  A
C2477      C2482   1.408       .  A
C2478      C2479   1.420       .  A
C2478      C2483   1.451       .  S
C2479      C2480   1.426       .  A
C2479      C2486   1.444       .  S
C2480      C2481   1.420       .  A
C2481      C2482   1.419       .  A
C2481      C2484   1.443       .  S
C2482      C2485   1.445       .  S
C2483      N2490   1.157       .  T
C2484      N2489   1.156       .  T
C2485      N2487   1.156       .  T
C2486      N2488   1.156       .  T
C2491      C2492   1.406       .  A
C2491      C2496   1.407       .  A
C2492      C2493   1.418       .  A
C2492      C2497   1.446       .  S
C2493      C2494   1.420       .  A
C2493      C2500   1.447       .  S
C2494      C2495   1.410       .  A
C2495      C2496   1.408       .  A
C2495      C2498   1.451       .  S
C2496      C2499   1.435       .  S
C2497      N2504   1.157       .  T
C2498      N2503   1.157       .  T
C2499      N2501   1.152       .  T
C2500      N2502   1.157       .  T
C2505      C2506   1.414       .  A
C2505      C2510   1.424       .  A
C2506      C2507   1.421       .  A
C2507      C2508   1.412       .  A
C2507      C2514   1.448       .  S
C2508      C2509   1.406       .  A
C2509      C2510   1.417       .  A
C2509      C2512   1.452       .  S
C2510      C2513   1.446       .  S
C2511      N2518   1.157       .  T
C2512      N2517   1.157       .  T
C2513      N2515   1.156       .  T
C2519      C2520   1.421       .  A
C2519      C2524   1.416       .  A
C2520      C2521   1.424       .  A
C2520      C2525   1.452       .  S
C2521      C2522   1.424       .  A
C2521      C2528   1.449       .  S
C2522      C2523   1.421       .  A
C2523      C2524   1.413       .  A
C2523      C2526   1.442       .  S
C2524      C2527   1.445       .  S
C2525      N2532   1.158       .  T
C2526      N2531   1.154   1_556  T
C2527      N2529   1.154   1_556  T
C2528      N2530   1.157       .  T
C2533      C2534   1.414       .  A
C2533      C2538   1.416       .  A
C2534      C2535   1.418       .  A
C2534      C2539   1.443       .  S
C2535      C2536   1.421       .  A
C2535      C2542   1.446       .  S
C2536      C2537   1.420       .  A
C2537      C2538   1.417       .  A
C2537      C2540   1.445       .  S
C2538      C2541   1.449       .  S
C2539      N2546   1.155       .  T
C2540      N2545   1.157       .  T
C2541      N2543   1.157       .  T
C2542      N2544   1.155       .  T
C2547      C2548   1.424       .  A
C2547      C2552   1.415       .  A
C2548      C2549   1.418       .  A
C2548      C2553   1.448       .  S
C2549      C2550   1.407       .  A
C2549      C2556   1.451       .  S
C2550      C2551   1.414       .  A
C2551      C2552   1.425       .  A
C2551      C2554   1.450       .  S
C2552      C2555   1.448       .  S
C2553      N2560   1.157       .  T
C2556      N2558   1.157       .  T
C2561      C2562   1.408       .  A
C2561      C2566   1.408       .  A
C2562      C2563   1.419       .  A
C2562      C2567   1.451       .  S
C2563      C2564   1.425       .  A
C2563      C2570   1.446       .  S
C2564      C2565   1.421       .  A
C2565      C2566   1.415       .  A
C2565      C2568   1.443       .  S
C2566      C2569   1.448       .  S
C2567      N2574   1.157       .  T
C2569      N2571   1.156       .  T
C2570      N2572   1.156       .  T
C2575      C2576   1.410       .  A
C2575      C2580   1.408       .  A
C2576      C2577   1.416       .  A
C2576      C2581   1.449       .  S
C2577      C2578   1.415       .  A
C2577      C2584   1.443       .  S
C2578      C2579   1.412       .  A
C2579      C2580   1.413       .  A
C2579      C2582   1.442       .  S
C2580      C2583   1.443       .  S
C2581      N2588   1.157       .  T
C2582      N2587   1.155       .  T
C2583      N2585   1.155       .  T
C2584      N2586   1.156       .  T
C2589      C2590   1.410       .  A
C2589      C2594   1.434       .  A
C2590      C2591   1.418       .  A
C2590      C2595   1.449       .  S
C2591      C2592   1.415       .  A
C2591      C2598   1.448       .  S
C2592      C2593   1.395       .  A
C2593      C2594   1.403       .  A
C2593      C2596   1.457       .  S
C2594      C2597   1.447       .  S
C2595      N2602   1.157       .  T
C2596      N2601   1.157       .  T
C2597      N2599   1.155       .  T
C2598      N2600   1.157       .  T
C2603      C2604   1.427       .  A
C2603      C2608   1.423       .  A
C2604      C2605   1.408       .  A
C2604      C2609   1.451       .  S
C2605      C2606   1.405       .  A
C2605      C2612   1.454       .  S
C2606      C2607   1.401       .  A
C2607      C2608   1.418       .  A
C2607      C2610   1.448       .  S
C2608      C2611   1.434       .  S
C2609      N2616   1.158       .  T
C2612      N2614   1.157       .  T
