geometry optimzed in LAMMPS
_audit_creation_date              2020-11-30 
_audit_creation_method            'lammps2cif' 
_symmetry_space_group_name_H-M    'P1' 
_symmetry_Int_Tables_number       1 
_symmetry_cell_setting            triclinic 
loop_ 
_symmetry_equiv_pos_as_xyz 
  x,y,z 
_cell_length_a                    63.61526505258401 
_cell_length_b                    63.497391242342964 
_cell_length_c                    63.61217637335613 
_cell_angle_alpha                 89.96486299013708 
_cell_angle_beta                  90.18763607100756 
_cell_angle_gamma                 90.22748158864597 
loop_ 
_atom_site_label 
_atom_site_type_symbol 
_atom_site_fract_x 
_atom_site_fract_y 
_atom_site_fract_z 
_atom_site_charge 
N1          N  0.66684826  0.83656804  0.82590845    -0.27270
N2          N  0.65844257  0.81837162  0.82015708    -0.35130
C3          C  0.65438960  0.81895188  0.79938501     0.01070
C4          C  0.66088629  0.83830389  0.79176105     0.07100
C5          C  0.66877252  0.84903372  0.80893778    -0.06000
H6          H  0.64850272  0.80578505  0.79028942     0.07760
H7          H  0.67574607  0.86460219  0.80904964     0.08960
Cu8        Cu  0.65679281  0.79238549  0.83995271     0.44170
Cu9        Cu  0.67572250  0.84360579  0.85640328     0.41990
Cu10       Cu  0.67893497  0.79994506  0.89211739     0.43880
N11         N  0.66542821  0.76788033  0.85979138    -0.34660
N12         N  0.67492164  0.77069808  0.87811745    -0.28910
C13         C  0.68175255  0.75198232  0.88528466    -0.05010
C14         C  0.67591263  0.73666415  0.87097262     0.07200
C15         C  0.66552665  0.74723583  0.85506572     0.01000
H16         H  0.69065570  0.74976455  0.89963173     0.08650
H17         H  0.65978037  0.74061870  0.84045764     0.07730
N18         N  0.68069142  0.83113007  0.90169120    -0.36110
N19         N  0.68009985  0.84714695  0.88841842    -0.28290
C20         C  0.68102886  0.86527411  0.89929797    -0.03530
C21         C  0.68224385  0.86038750  0.92041647     0.05090
C22         C  0.68180068  0.83864246  0.92143532     0.03180
H23         H  0.68011408  0.88082519  0.89240555     0.08280
H24         H  0.68192507  0.82902029  0.93547683     0.07120
N25         N  0.70941747  0.85703541  0.67166636    -0.27270
N26         N  0.71502489  0.86439141  0.69031281    -0.35130
C27         C  0.73596127  0.86749227  0.69051010     0.01070
C28         C  0.74379772  0.86144673  0.67119014     0.07100
C29         C  0.72660136  0.85484972  0.65966397    -0.06000
H30         H  0.74495530  0.87234688  0.70414831     0.07760
H31         H  0.72660284  0.84849242  0.64388744     0.08960
Cu32       Cu  0.69468004  0.86566178  0.71575254     0.44170
Cu33       Cu  0.67891474  0.84954196  0.66341984     0.41990
Cu34       Cu  0.64243890  0.84458823  0.70594728     0.43880
N35         N  0.67404047  0.85647429  0.73930302    -0.34660
N36         N  0.65566040  0.84736192  0.73560971    -0.28910
C37         C  0.64785251  0.83993156  0.75380019    -0.05010
C38         C  0.66181264  0.84496286  0.76970385     0.07200
C39         C  0.67817585  0.85551702  0.76002865     0.01000
H40         H  0.63331623  0.83115523  0.75525335     0.08650
H41         H  0.69268047  0.86077455  0.76728244     0.07730
N42         N  0.63348516  0.84421964  0.67462521    -0.36110
N43         N  0.64701965  0.84561136  0.65896947    -0.28290
C44         C  0.63646336  0.84562535  0.64063671    -0.03530
C45         C  0.61525924  0.84408080  0.64500583     0.05090
C46         C  0.61389188  0.84346427  0.66668869     0.03180
H47         H  0.64362975  0.84740271  0.62533297     0.08280
H48         H  0.59969847  0.84290633  0.67600116     0.07120
N49         N  0.83755309  0.63921575  0.84947432    -0.27270
N50         N  0.83320895  0.63090542  0.83089420    -0.35130
C51         C  0.81253114  0.62641765  0.82990210     0.01070
C52         C  0.80341868  0.63250907  0.84862871     0.07100
C53         C  0.81969311  0.64061456  0.86063911    -0.06000
H54         H  0.80449892  0.62059230  0.81604644     0.07760
H55         H  0.81856181  0.64749693  0.87614671     0.08960
Cu56       Cu  0.85459473  0.63021977  0.80635030     0.44170
Cu57       Cu  0.86743080  0.64901473  0.85847771     0.41990
Cu58       Cu  0.90472754  0.65559218  0.81637351     0.43880
N59         N  0.87497398  0.64001236  0.78287315    -0.34660
N60         N  0.89250230  0.65071355  0.78646292    -0.28910
C61         C  0.90009843  0.65784794  0.76803967    -0.05010
C62         C  0.88688529  0.65096032  0.75215024     0.07200
C63         C  0.87120558  0.63964343  0.76207405     0.01000
H64         H  0.91397772  0.66760470  0.76638784     0.08650
H65         H  0.85732504  0.63286068  0.75485350     0.07730
N66         N  0.91287640  0.65708992  0.84797775    -0.36110
N67         N  0.89914664  0.65512323  0.86342627    -0.28290
C68         C  0.90944112  0.65590493  0.88193557    -0.03530
C69         C  0.93064916  0.65853199  0.87791551     0.05090
C70         C  0.93228282  0.65897968  0.85623852     0.03180
H71         H  0.90215971  0.65377932  0.89713941     0.08280
H72         H  0.94658968  0.66004231  0.84714149     0.07120
N73         N  0.68205497  0.68023831  0.86423209    -0.27270
N74         N  0.70054624  0.68516033  0.87246422    -0.35130
C75         C  0.70081462  0.70583903  0.87709841     0.01070
C76         C  0.68170369  0.71431271  0.87116607     0.07100
C77         C  0.67023114  0.69770231  0.86299362    -0.06000
H78         H  0.71438816  0.71432561  0.88298651     0.07760
H79         H  0.65459578  0.69832167  0.85628391     0.08960
Cu80       Cu  0.72576789  0.66451349  0.87306083     0.44170
Cu81       Cu  0.67391023  0.65012786  0.85462907     0.41990
Cu82       Cu  0.71692826  0.61410800  0.84752783     0.43880
N83         N  0.74973765  0.64457717  0.86362938    -0.34660
N84         N  0.74658692  0.62699165  0.85290470    -0.28910
C85         C  0.76526289  0.61965377  0.84628059    -0.05010
C86         C  0.78085978  0.63308282  0.85351057     0.07200
C87         C  0.77048724  0.64863662  0.86450087     0.01000
H88         H  0.76729867  0.60576626  0.83666499     0.08650
H89         H  0.77738905  0.66260181  0.87145127     0.07730
N90         N  0.68548700  0.60495952  0.84667847    -0.36110
N91         N  0.66973559  0.61825513  0.84906356    -0.28290
C92         C  0.65150649  0.60743947  0.84904184    -0.03530
C93         C  0.65599081  0.58628006  0.84680959     0.05090
C94         C  0.67768328  0.58528889  0.84516711     0.03180
H95         H  0.63618706  0.61436867  0.85141191     0.08280
H96         H  0.68716576  0.57132984  0.84325953     0.07120
N97         N  0.86281661  0.80985380  0.65019103    -0.27270
N98         N  0.84385321  0.80485857  0.64316880    -0.35130
C99         C  0.84319294  0.78401273  0.63932801     0.01070
C100        C  0.86256031  0.77561646  0.64453970     0.07100
C101        C  0.87456185  0.79238202  0.65141682    -0.06000
H102        H  0.82922665  0.77540028  0.63467521     0.07760
H103        H  0.89045584  0.79185074  0.65749547     0.08960
Cu104      Cu  0.81877635  0.82576607  0.64351060     0.44170
Cu105      Cu  0.87188126  0.83974715  0.65906509     0.41990
Cu106      Cu  0.83028223  0.87611461  0.66837798     0.43880
N107        N  0.79597169  0.84672861  0.65375841    -0.34660
N108        N  0.80029155  0.86427899  0.66413505    -0.28910
C109        C  0.78233929  0.87250526  0.67152616    -0.05010
C110        C  0.76593457  0.85971286  0.66519124     0.07200
C111        C  0.77505234  0.84358274  0.65388834     0.01000
H112        H  0.78136791  0.88655614  0.68108231     0.08650
H113        H  0.76721766  0.82986921  0.64743792     0.07730
N114        N  0.86163940  0.88461380  0.66876524    -0.36110
N115        N  0.87703345  0.87114738  0.66541813    -0.28290
C116        C  0.89547449  0.88153433  0.66565195    -0.03530
C117        C  0.89138878  0.90263457  0.66898059     0.05090
C118        C  0.86982238  0.90398498  0.67117801     0.03180
H119        H  0.91064966  0.87431747  0.66320681     0.08280
H120        H  0.86071118  0.91809180  0.67378856     0.07120
N121        N  0.88122279  0.65601166  0.69560410    -0.27270
N122        N  0.88910176  0.67475638  0.70023085    -0.35130
C123        C  0.89344606  0.67546310  0.72095156     0.01070
C124        C  0.88770754  0.65635822  0.72972576     0.07100
C125        C  0.87996914  0.64445254  0.71325580    -0.06000
H126        H  0.89889696  0.68933321  0.72923774     0.07760
H127        H  0.87339204  0.62873712  0.71411232     0.08960
Cu128      Cu  0.88942183  0.69967660  0.67906386     0.44170
Cu129      Cu  0.87175446  0.64707277  0.66575199     0.41990
Cu130      Cu  0.86501152  0.68903141  0.62854118     0.43880
N131        N  0.87944527  0.72289463  0.65834818    -0.34660
N132        N  0.86909740  0.71896584  0.64070187    -0.28910
C133        C  0.86177823  0.73717234  0.63276527    -0.05010
C134        C  0.86818041  0.75330273  0.64586769     0.07200
C135        C  0.87940805  0.74376448  0.66185036     0.01000
H136        H  0.85229083  0.73850720  0.61868336     0.08650
H137        H  0.88589229  0.75128079  0.67570061     0.07730
N138        N  0.86453353  0.65753180  0.62029688    -0.36110
N139        N  0.86649786  0.64203568  0.63404076    -0.28290
C140        C  0.86647041  0.62354230  0.62373004    -0.03530
C141        C  0.86470546  0.62771495  0.60249546     0.05090
C142        C  0.86342031  0.64937149  0.60084339     0.03180
H143        H  0.86850339  0.60830385  0.63105800     0.08280
H144        H  0.86228892  0.65852843  0.58653679     0.07120
N145        N  0.85712058  0.17898314  0.65304173    -0.27270
N146        N  0.83829324  0.18338499  0.64540561    -0.35130
C147        C  0.83710967  0.20424671  0.64185321     0.01070
C148        C  0.85599826  0.21329254  0.64789534     0.07100
C149        C  0.86827979  0.19687465  0.65494766    -0.06000
H150        H  0.82308268  0.21237637  0.63672486     0.07760
H151        H  0.88397480  0.19789452  0.66148093     0.08960
Cu152      Cu  0.81399937  0.16149232  0.64457807     0.44170
Cu153      Cu  0.86652956  0.14912962  0.66151263     0.41990
Cu154      Cu  0.82535826  0.11116166  0.66954049     0.43880
N155        N  0.79120389  0.14026724  0.65447925    -0.34660
N156        N  0.79528065  0.12280009  0.66506169    -0.28910
C157        C  0.77712005  0.11464715  0.67228470    -0.05010
C158        C  0.76089720  0.12742008  0.66557682     0.07200
C159        C  0.77033472  0.14342381  0.65427687     0.01000
H160        H  0.77587396  0.10067114  0.68194588     0.08650
H161        H  0.76273322  0.15711445  0.64761373     0.07730
N162        N  0.85702159  0.10358272  0.66966339    -0.36110
N163        N  0.87212564  0.11764180  0.66691528    -0.28290
C164        C  0.89078331  0.10780956  0.66650367    -0.03530
C165        C  0.88726310  0.08648420  0.66919556     0.05090
C166        C  0.86566892  0.08435427  0.67098243     0.03180
H167        H  0.90558124  0.11555884  0.66326858     0.08280
H168        H  0.85686197  0.06983311  0.67259925     0.07120
N169        N  0.87601283  0.33463057  0.69638802    -0.27270
N170        N  0.88312157  0.31574342  0.70147565    -0.35130
C171        C  0.88692849  0.31518315  0.72228904     0.01070
C172        C  0.88161377  0.33450611  0.73068604     0.07100
C173        C  0.87468899  0.34642311  0.71388068    -0.06000
H174        H  0.89160495  0.30125156  0.73088897     0.07760
H175        H  0.86853204  0.36227189  0.71440758     0.08960
Cu176      Cu  0.88279506  0.29026816  0.68104234     0.44170
Cu177      Cu  0.86726109  0.34327523  0.66617560     0.41990
Cu178      Cu  0.85722980  0.29983731  0.63131747     0.43880
N179        N  0.87218858  0.26651227  0.66123678    -0.34660
N180        N  0.86135167  0.27010622  0.64383873    -0.28910
C181        C  0.85407365  0.25170934  0.63621446    -0.05010
C182        C  0.86101116  0.23579380  0.64926610     0.07200
C183        C  0.87249990  0.24566643  0.66491034     0.01000
H184        H  0.84442409  0.25007661  0.62226800     0.08650
H185        H  0.87958404  0.23835976  0.67855834     0.07730
N186        N  0.85763289  0.33091490  0.62164169    -0.36110
N187        N  0.86107233  0.34697330  0.63437956    -0.28290
C188        C  0.86109267  0.36487818  0.62306416    -0.03530
C189        C  0.85745772  0.35987262  0.60211990     0.05090
C190        C  0.85554156  0.33809093  0.60189925     0.03180
H191        H  0.86380776  0.38036711  0.62962074     0.08280
H192        H  0.85363879  0.32794029  0.58839636     0.07120
N193        N  0.82967153  0.34997270  0.85011291    -0.27270
N194        N  0.82534453  0.35817282  0.83147842    -0.35130
C195        C  0.80463419  0.36229507  0.83039710     0.01070
C196        C  0.79551972  0.35607416  0.84911001     0.07100
C197        C  0.81179855  0.34830335  0.86121844    -0.06000
H198        H  0.79660419  0.36799614  0.81650787     0.07760
H199        H  0.81067608  0.34145975  0.87675623     0.08960
Cu200      Cu  0.84676748  0.35936515  0.80695008     0.44170
Cu201      Cu  0.85942214  0.34054964  0.85945344     0.41990
Cu202      Cu  0.89666888  0.33451749  0.81753721     0.43880
N203        N  0.86760061  0.35028291  0.78363885    -0.34660
N204        N  0.88508923  0.33974780  0.78748562    -0.28910
C205        C  0.89315615  0.33298608  0.76917309    -0.05010
C206        C  0.88031892  0.33995460  0.75306227     0.07200
C207        C  0.86432783  0.35092027  0.76274999     0.01000
H208        H  0.90706924  0.32335380  0.76774108     0.08650
H209        H  0.85055363  0.35755796  0.75528849     0.07730
N210        N  0.90475212  0.33289062  0.84910577    -0.36110
N211        N  0.89103291  0.33464086  0.86456319    -0.28290
C212        C  0.90134029  0.33403544  0.88307259    -0.03530
C213        C  0.92255922  0.33185101  0.87899864     0.05090
C214        C  0.92416703  0.33135483  0.85733384     0.03180
H215        H  0.89405836  0.33622940  0.89825282     0.08280
H216        H  0.93847158  0.33058740  0.84821594     0.07120
N217        N  0.65895496  0.15265540  0.82500343    -0.27270
N218        N  0.65141071  0.17128040  0.81964845    -0.35130
C219        C  0.64811767  0.17159247  0.79874339     0.01070
C220        C  0.65424007  0.15236653  0.79064959     0.07100
C221        C  0.66109345  0.14078142  0.80767586    -0.06000
H222        H  0.64302027  0.18524541  0.78994106     0.07760
H223        H  0.66754963  0.12504500  0.80746233     0.08960
Cu224      Cu  0.65004158  0.19651368  0.84035245     0.44170
Cu225      Cu  0.66673802  0.14441964  0.85540730     0.41990
Cu226      Cu  0.67443365  0.18742548  0.89137140     0.43880
N227        N  0.65878965  0.22039046  0.86093353    -0.34660
N228        N  0.66911052  0.21714935  0.87873194    -0.28910
C229        C  0.67557627  0.23582629  0.88645931    -0.05010
C230        C  0.66865530  0.25152399  0.87307542     0.07200
C231        C  0.65801634  0.24121323  0.85712669     0.01000
H232        H  0.68498423  0.23778828  0.90052772     0.08650
H233        H  0.65150908  0.24820708  0.84303465     0.07730
N234        N  0.67531091  0.15594323  0.90034914    -0.36110
N235        N  0.67215515  0.14021107  0.88711197    -0.28290
C236        C  0.67252543  0.12190406  0.89772928    -0.03530
C237        C  0.67610114  0.12628777  0.91873661     0.05090
C238        C  0.67793211  0.14802954  0.91978837     0.03180
H239        H  0.67045024  0.10657263  0.89060136     0.08280
H240        H  0.68048346  0.15743760  0.93374782     0.07120
N241        N  0.67380749  0.30824878  0.86720581    -0.27270
N242        N  0.69249676  0.30354507  0.87505477    -0.35130
C243        C  0.69304477  0.28283268  0.87950511     0.01070
C244        C  0.67393363  0.27405612  0.87385344     0.07100
C245        C  0.66214314  0.29056416  0.86604788    -0.06000
H246        H  0.70686723  0.27451015  0.88487705     0.07760
H247        H  0.64647583  0.28968643  0.85942994     0.08960
Cu248      Cu  0.71788616  0.32418224  0.87495561     0.44170
Cu249      Cu  0.66531706  0.33825357  0.85738374     0.41990
Cu250      Cu  0.70911459  0.37296303  0.84743182     0.43880
N251        N  0.74196944  0.34370478  0.86461255    -0.34660
N252        N  0.73873358  0.36076023  0.85313346    -0.28910
C253        C  0.75732499  0.36811399  0.84619463    -0.05010
C254        C  0.77298873  0.35522774  0.85397033     0.07200
C255        C  0.76274188  0.33997483  0.86563373     0.01000
H256        H  0.75925303  0.38165617  0.83604068     0.08650
H257        H  0.76974690  0.32644226  0.87321465     0.07730
N258        N  0.67807782  0.38271000  0.84718816    -0.36110
N259        N  0.66189629  0.37006849  0.85065364    -0.28290
C260        C  0.64417053  0.38160060  0.85100492    -0.03530
C261        C  0.64954894  0.40252650  0.84791934     0.05090
C262        C  0.67115180  0.40258526  0.84540653     0.03180
H263        H  0.62868531  0.37537801  0.85436707     0.08280
H264        H  0.68121391  0.41615042  0.84304212     0.07120
N265        N  0.70446510  0.13201997  0.67099939    -0.27270
N266        N  0.70936936  0.12456531  0.68979849    -0.35130
C267        C  0.73012107  0.12047767  0.69035283     0.01070
C268        C  0.73858136  0.12596228  0.67109447     0.07100
C269        C  0.72192518  0.13325632  0.65926240    -0.06000
H270        H  0.73865840  0.11553832  0.70423189     0.07760
H271        H  0.72255304  0.13971890  0.64353382     0.08960
Cu272      Cu  0.68862516  0.12477311  0.71498050     0.44170
Cu273      Cu  0.67475104  0.14164286  0.66221767     0.41990
Cu274      Cu  0.63863208  0.15012522  0.70423491     0.43880
N275        N  0.66809146  0.13502829  0.73813676    -0.34660
N276        N  0.65063140  0.14555693  0.73411073    -0.28910
C277        C  0.64273029  0.15295270  0.75222669    -0.05010
C278        C  0.65564630  0.14646393  0.76842876     0.07200
C279        C  0.67150537  0.13506221  0.75901479     0.01000
H280        H  0.62883029  0.16263458  0.75344577     0.08650
H281        H  0.68522895  0.12848042  0.76661834     0.07730
N282        N  0.63012357  0.15160715  0.67289225    -0.36110
N283        N  0.64347275  0.14866213  0.65734645    -0.28290
C284        C  0.63308841  0.14982003  0.63894820    -0.03530
C285        C  0.61204295  0.15352781  0.64312070     0.05090
C286        C  0.61084570  0.15465614  0.66485523     0.03180
H287        H  0.64046784  0.14805869  0.62377772     0.08280
H288        H  0.59687048  0.15689693  0.67422451     0.07120
N289        N  0.15426671  0.65607172  0.78780239    -0.27270
N290        N  0.17195708  0.64572386  0.78450625    -0.35130
C291        C  0.17612126  0.64575019  0.76379452     0.01070
C292        C  0.16052456  0.65697481  0.75367146     0.07100
C293        C  0.14697106  0.66339576  0.76931856    -0.06000
H294        H  0.19018522  0.63931416  0.75680761     0.07760
H295        H  0.13302203  0.67292027  0.76746275     0.08960
Cu296      Cu  0.19187018  0.63594062  0.80847093     0.44170
Cu297      Cu  0.14123542  0.66005915  0.81737891     0.41990
Cu298      Cu  0.17727208  0.65340233  0.86060255     0.43880
N299        N  0.21249396  0.63675791  0.83381722    -0.34660
N300        N  0.20752560  0.64468055  0.85236659    -0.28910
C301        C  0.22502828  0.64624348  0.86419361    -0.05010
C302        C  0.24170682  0.63861295  0.85265341     0.07200
C303        C  0.23322727  0.63265749  0.83351390     0.01000
H304        H  0.22561854  0.65279952  0.87987989     0.08650
H305        H  0.24171973  0.62712755  0.81989413     0.07730
N306        N  0.14525564  0.65786756  0.86453270    -0.36110
N307        N  0.13198695  0.65992759  0.84863027    -0.28290
C308        C  0.11227117  0.66065184  0.85615137    -0.03530
C309        C  0.11320827  0.65894069  0.87781803     0.05090
C310        C  0.13434998  0.65739419  0.88262232     0.03180
H311        H  0.09830267  0.66205243  0.84651773     0.08280
H312        H  0.14122981  0.65522165  0.89804352     0.07120
N313        N  0.36309494  0.68663362  0.86855063    -0.27270
N314        N  0.34473796  0.69183204  0.87671128    -0.35130
C315        C  0.34474106  0.71264306  0.88072320     0.01070
C316        C  0.36387449  0.72088941  0.87444586     0.07100
C317        C  0.37508704  0.70401545  0.86674694    -0.06000
H318        H  0.33130892  0.72134513  0.88637430     0.07760
H319        H  0.39062934  0.70439883  0.85989850     0.08960
Cu320      Cu  0.31923179  0.67131767  0.87792706     0.44170
Cu321      Cu  0.37085342  0.65636839  0.85948329     0.41990
Cu322      Cu  0.32773056  0.62010556  0.85408726     0.43880
N323        N  0.29511641  0.65104395  0.86892259    -0.34660
N324        N  0.29824944  0.63310699  0.85885534    -0.28910
C325        C  0.27964675  0.62559097  0.85200031    -0.05010
C326        C  0.26407554  0.63925485  0.85839591     0.07200
C327        C  0.27438578  0.65515439  0.86915160     0.01000
H328        H  0.27766815  0.61147768  0.84266781     0.08650
H329        H  0.26749984  0.66939768  0.87536326     0.07730
N330        N  0.35899545  0.61112264  0.85212953    -0.36110
N331        N  0.37483785  0.62456790  0.85378036    -0.28290
C332        C  0.39305664  0.61394662  0.85275584    -0.03530
C333        C  0.38840001  0.59284009  0.85030936     0.05090
C334        C  0.36670996  0.59153179  0.85013812     0.03180
H335        H  0.40849108  0.62096495  0.85446275     0.08280
H336        H  0.35725526  0.57736168  0.84918938     0.07120
N337        N  0.38113819  0.84180616  0.82532161    -0.27270
N338        N  0.38918705  0.82334011  0.82019163    -0.35130
C339        C  0.39362624  0.82338896  0.79950105     0.01070
C340        C  0.38776457  0.84268373  0.79128920     0.07100
C341        C  0.37986196  0.85391224  0.80804423    -0.06000
H342        H  0.39925877  0.80989985  0.79082901     0.07760
H343        H  0.37316736  0.86954490  0.80762804     0.08960
Cu344      Cu  0.38980141  0.79777633  0.84064651     0.44170
Cu345      Cu  0.37142105  0.84976094  0.85526688     0.41990
Cu346      Cu  0.36649311  0.80720476  0.89185974     0.43880
N347        N  0.38064750  0.77399572  0.86120947    -0.34660
N348        N  0.37085753  0.77750742  0.87918080    -0.28910
C349        C  0.36385603  0.75908131  0.88697487    -0.05010
C350        C  0.36985688  0.74321373  0.87345524     0.07200
C351        C  0.38054753  0.75316426  0.85735284     0.01000
H352        H  0.35468304  0.75743178  0.90117816     0.08650
H353        H  0.38650289  0.74596801  0.84316761     0.07730
N354        N  0.36416777  0.83856202  0.90047198    -0.36110
N355        N  0.36542206  0.85424951  0.88686768    -0.28290
C356        C  0.36408770  0.87263128  0.89726498    -0.03530
C357        C  0.36187071  0.86824011  0.91842313     0.05090
C358        C  0.36221170  0.84652162  0.91994016     0.03180
H359        H  0.36559209  0.88801362  0.89008988     0.08280
H360        H  0.36162771  0.83722146  0.93418546     0.07120
N361        N  0.18595322  0.81649707  0.64983946    -0.27270
N362        N  0.20483301  0.81175384  0.64264824    -0.35130
C363        C  0.20568237  0.79085781  0.63911627     0.01070
C364        C  0.18652371  0.78215195  0.64469346     0.07100
C365        C  0.17445715  0.79880282  0.65147275    -0.06000
H366        H  0.21969419  0.78244415  0.63453199     0.07760
H367        H  0.15872076  0.79803499  0.65783633     0.08960
Cu368      Cu  0.22969083  0.83309491  0.64267896     0.44170
Cu369      Cu  0.17676689  0.84641767  0.65846041     0.41990
Cu370      Cu  0.21832538  0.88362547  0.66686144     0.43880
N371        N  0.25253225  0.85410148  0.65320785    -0.34660
N372        N  0.24830702  0.87167837  0.66349270    -0.28910
C373        C  0.26630356  0.87984930  0.67115904    -0.05010
C374        C  0.28261751  0.86698825  0.66505415     0.07200
C375        C  0.27340228  0.85089195  0.65363831     0.01000
H376        H  0.26737806  0.89396308  0.68062987     0.08650
H377        H  0.28113747  0.83717821  0.64725026     0.07730
N378        N  0.18692127  0.89185520  0.66613047    -0.36110
N379        N  0.17153084  0.87806379  0.66353540    -0.28290
C380        C  0.15309046  0.88831979  0.66284156    -0.03530
C381        C  0.15716428  0.90962363  0.66475400     0.05090
C382        C  0.17875188  0.91130579  0.66691680     0.03180
H383        H  0.13796998  0.88090998  0.66018971     0.08280
H384        H  0.18789109  0.92561479  0.66860296     0.07120
N385        N  0.33911508  0.86394077  0.67129645    -0.27270
N386        N  0.33383171  0.87089560  0.69012362    -0.35130
C387        C  0.31294413  0.87420441  0.69047308     0.01070
C388        C  0.30482105  0.86871141  0.67102237     0.07100
C389        C  0.32179466  0.86221936  0.65930000    -0.06000
H390        H  0.30415410  0.87870912  0.70427999     0.07760
H391        H  0.32152411  0.85612709  0.64342032     0.08960
Cu392      Cu  0.35465921  0.87101843  0.71533045     0.44170
Cu393      Cu  0.36934295  0.85604454  0.66301264     0.41990
Cu394      Cu  0.40595357  0.84740173  0.70515522     0.43880
N395        N  0.37516364  0.86070030  0.73859238    -0.34660
N396        N  0.39297444  0.85067398  0.73489342    -0.28910
C397        C  0.40052223  0.84301769  0.75315336    -0.05010
C398        C  0.38699673  0.84885068  0.76906007     0.07200
C399        C  0.37118468  0.86010385  0.75932213     0.01000
H400        H  0.41462604  0.83366560  0.75467409     0.08650
H401        H  0.35711080  0.86621786  0.76657330     0.07730
N402        N  0.41454581  0.84789431  0.67368300    -0.36110
N403        N  0.40094567  0.85107668  0.65828373    -0.28290
C404        C  0.41113513  0.85118821  0.63982701    -0.03530
C405        C  0.43228301  0.84812257  0.64377048     0.05090
C406        C  0.43384985  0.84585931  0.66539173     0.03180
H407        H  0.40351508  0.85297562  0.62473177     0.08280
H408        H  0.44803544  0.84325275  0.67444010     0.07120
N409        N  0.16540086  0.66238035  0.69709489    -0.27270
N410        N  0.15943178  0.68164174  0.70215283    -0.35130
C411        C  0.15578029  0.68241027  0.72296738     0.01070
C412        C  0.15998347  0.66277476  0.73135356     0.07100
C413        C  0.16613936  0.65049835  0.71457527    -0.06000
H414        H  0.15172256  0.69652871  0.73153507     0.07760
H415        H  0.17110448  0.63422826  0.71506776     0.08960
Cu416      Cu  0.16033190  0.70668965  0.68119390     0.44170
Cu417      Cu  0.17250315  0.65320273  0.66673698     0.41990
Cu418      Cu  0.18084509  0.69523527  0.62938951     0.43880
N419        N  0.17026880  0.72955122  0.66008439    -0.34660
N420        N  0.17926379  0.72536289  0.64184676    -0.28910
C421        C  0.18641886  0.74345228  0.63336385    -0.05010
C422        C  0.18127201  0.75974528  0.64676319     0.07200
C423        C  0.17101016  0.75042267  0.66346599     0.01000
H424        H  0.19465177  0.74464130  0.61855174     0.08650
H425        H  0.16539558  0.75812325  0.67752711     0.07730
N426        N  0.17792310  0.66378233  0.62100651    -0.36110
N427        N  0.17534508  0.64834018  0.63471625    -0.28290
C428        C  0.17312786  0.63003282  0.62429173    -0.03530
C429        C  0.17403680  0.63420831  0.60298462     0.05090
C430        C  0.17719272  0.65574750  0.60147552     0.03180
H431        H  0.17020917  0.61494290  0.63165318     0.08280
H432        H  0.17862136  0.66495888  0.58723447     0.07120
N433        N  0.66302152  0.83719066  0.19778551    -0.27270
N434        N  0.65622516  0.81835971  0.20355757    -0.35130
C435        C  0.65275836  0.81844773  0.22442269     0.01070
C436        C  0.65799403  0.83816918  0.23208512     0.07100
C437        C  0.66453860  0.84961023  0.21483097    -0.06000
H438        H  0.64827636  0.80476781  0.23353951     0.07760
H439        H  0.67044997  0.86561041  0.21472996     0.08960
Cu440      Cu  0.65639126  0.79251220  0.18355009     0.44170
Cu441      Cu  0.67086302  0.84483307  0.16720377     0.41990
Cu442      Cu  0.68153676  0.80133984  0.13276177     0.43880
N443        N  0.66647885  0.76857273  0.16379344    -0.34660
N444        N  0.67699138  0.77180537  0.14615391    -0.28910
C445        C  0.68404140  0.75320974  0.13893811    -0.05010
C446        C  0.67733204  0.73756180  0.15249003     0.07200
C447        C  0.66618230  0.74781016  0.16799826     0.01000
H448        H  0.69354525  0.75126809  0.12500428     0.08650
H449        H  0.65946482  0.74084682  0.18198920     0.07730
N450        N  0.68145031  0.83254344  0.12285961    -0.36110
N451        N  0.67710560  0.84842736  0.13553658    -0.28290
C452        C  0.67687344  0.86642281  0.12439393    -0.03530
C453        C  0.68153540  0.86164559  0.10378431     0.05090
C454        C  0.68428931  0.84005700  0.10327539     0.03180
H455        H  0.67333857  0.88178772  0.13078192     0.08280
H456        H  0.68755140  0.83048438  0.08961514     0.07120
N457        N  0.70848208  0.85726981  0.35185174    -0.27270
N458        N  0.71387065  0.86436163  0.33307181    -0.35130
C459        C  0.73480131  0.86751222  0.33274755     0.01070
C460        C  0.74285418  0.86176483  0.35213507     0.07100
C461        C  0.72579515  0.85527872  0.36382042    -0.06000
H462        H  0.74363919  0.87224623  0.31901897     0.07760
H463        H  0.72596739  0.84920752  0.37971596     0.08960
Cu464      Cu  0.69309871  0.86530125  0.30780278     0.44170
Cu465      Cu  0.67802976  0.85011181  0.36031526     0.41990
Cu466      Cu  0.64094917  0.84386157  0.31820374     0.43880
N467        N  0.67204364  0.85595713  0.28452630    -0.34660
N468        N  0.65379565  0.84668227  0.28840028    -0.28910
C469        C  0.64570794  0.83931887  0.27025201    -0.05010
C470        C  0.65931910  0.84458673  0.25420097     0.07200
C471        C  0.67578522  0.85518405  0.26374185     0.01000
H472        H  0.63117950  0.83049914  0.26890761     0.08650
H473        H  0.69009067  0.86064460  0.25633094     0.07730
N474        N  0.63242783  0.84430634  0.34964548    -0.36110
N475        N  0.64618433  0.84654024  0.36508403    -0.28290
C476        C  0.63598893  0.84682934  0.38353933    -0.03530
C477        C  0.61468827  0.84488546  0.37953652     0.05090
C478        C  0.61302861  0.84309359  0.35788549     0.03180
H479        H  0.64369063  0.84796501  0.39865757     0.08280
H480        H  0.59873044  0.84135573  0.34878103     0.07120
N481        N  0.86261982  0.81128835  0.37117074    -0.27270
N482        N  0.84396846  0.80621795  0.37883512    -0.35130
C483        C  0.84367354  0.78544714  0.38312179     0.01070
C484        C  0.86294178  0.77713931  0.37755819     0.07100
C485        C  0.87451215  0.79390626  0.36998859    -0.06000
H486        H  0.82998921  0.77680135  0.38841875     0.07760
H487        H  0.89023148  0.79343517  0.36356713     0.08960
Cu488      Cu  0.81867173  0.82686453  0.37906065     0.44170
Cu489      Cu  0.87114144  0.84126699  0.36180918     0.41990
Cu490      Cu  0.82911807  0.87795146  0.35556350     0.43880
N491        N  0.79538102  0.84764949  0.36939220    -0.34660
N492        N  0.79932098  0.86554981  0.35948210    -0.28910
C493        C  0.78118394  0.87359236  0.35220161    -0.05010
C494        C  0.76505214  0.86031278  0.35815140     0.07200
C495        C  0.77452438  0.84408807  0.36910054     0.01000
H496        H  0.77990472  0.88784955  0.34296967     0.08650
H497        H  0.76698341  0.83005228  0.37516582     0.07730
N498        N  0.86044020  0.88653739  0.35431225    -0.36110
N499        N  0.87599072  0.87292455  0.35614197    -0.28290
C500        C  0.89440100  0.88338032  0.35565782    -0.03530
C501        C  0.89014330  0.90457935  0.35337496     0.05090
C502        C  0.86848683  0.90606264  0.35279284     0.03180
H503        H  0.90966112  0.87621226  0.35778961     0.08280
H504        H  0.85926267  0.92031888  0.35192883     0.07120
N505        N  0.83641659  0.63737062  0.17267881    -0.27270
N506        N  0.83185920  0.63002160  0.19158953    -0.35130
C507        C  0.81117324  0.62551231  0.19239794     0.01070
C508        C  0.80229899  0.63059789  0.17318775     0.07100
C509        C  0.81870759  0.63814408  0.16111224    -0.06000
H510        H  0.80294183  0.62052965  0.20641448     0.07760
H511        H  0.81773662  0.64438080  0.14530862     0.08960
Cu512      Cu  0.85291393  0.63094507  0.21659985     0.44170
Cu513      Cu  0.86624438  0.64716540  0.16376735     0.41990
Cu514      Cu  0.90205052  0.65823577  0.20632727     0.43880
N515        N  0.87307475  0.64182416  0.23996476    -0.34660
N516        N  0.89015876  0.65315206  0.23623228    -0.28910
C517        C  0.89785835  0.66043171  0.25458819    -0.05010
C518        C  0.88518510  0.65302667  0.27059803     0.07200
C519        C  0.86970090  0.64123475  0.26080981     0.01000
H520        H  0.91151216  0.67053487  0.25612459     0.08650
H521        H  0.85626281  0.63383023  0.26817744     0.07730
N522        N  0.91092839  0.65811164  0.17497613    -0.36110
N523        N  0.89779451  0.65417078  0.15930481    -0.28290
C524        C  0.90862261  0.65382392  0.14116210    -0.03530
C525        C  0.92959695  0.65744999  0.14570151     0.05090
C526        C  0.93046691  0.66027207  0.16725810     0.03180
H527        H  0.90188651  0.65024144  0.12593497     0.08280
H528        H  0.94430154  0.66329328  0.17672924     0.07120
N529        N  0.88067988  0.65760290  0.32726514    -0.27270
N530        N  0.88874229  0.67626887  0.32268355    -0.35130
C531        C  0.89266020  0.67712098  0.30191440     0.01070
C532        C  0.88644296  0.65819697  0.29305835     0.07100
C533        C  0.87889316  0.64623021  0.30953925    -0.06000
H534        H  0.89814367  0.69099401  0.29367323     0.07760
H535        H  0.87204962  0.63062936  0.30864526     0.08960
Cu536      Cu  0.88973383  0.70098118  0.34401753     0.44170
Cu537      Cu  0.87143783  0.64870804  0.35713779     0.41990
Cu538      Cu  0.86532072  0.69058347  0.39455648     0.43880
N539        N  0.88006683  0.72429671  0.36464993    -0.34660
N540        N  0.86973977  0.72051992  0.38228195    -0.28910
C541        C  0.86242609  0.73882073  0.38996052    -0.05010
C542        C  0.86880000  0.75484108  0.37670253     0.07200
C543        C  0.88001804  0.74513056  0.36090788     0.01000
H544        H  0.85284671  0.74028310  0.40390231     0.08650
H545        H  0.88638804  0.75248452  0.34695162     0.07730
N546        N  0.86372867  0.65895670  0.40254261    -0.36110
N547        N  0.86553193  0.64357432  0.38868184    -0.28290
C548        C  0.86461441  0.62496398  0.39874794    -0.03530
C549        C  0.86204817  0.62885627  0.41995341     0.05090
C550        C  0.86179480  0.65055177  0.42184794     0.03180
H551        H  0.86654821  0.60978095  0.39130777     0.08280
H552        H  0.86078214  0.65955222  0.43624381     0.07120
N553        N  0.68222170  0.68080534  0.15785778    -0.27270
N554        N  0.70079551  0.68552802  0.14982832    -0.35130
C555        C  0.70155947  0.70632613  0.14578943     0.01070
C556        C  0.68267529  0.71508861  0.15189449     0.07100
C557        C  0.67081964  0.69850901  0.15954631    -0.06000
H558        H  0.71530076  0.71463884  0.14012692     0.07760
H559        H  0.65519365  0.69929102  0.16615653     0.08960
Cu560      Cu  0.72538864  0.66419583  0.14864085     0.44170
Cu561      Cu  0.67348993  0.65053619  0.16642670     0.41990
Cu562      Cu  0.71554077  0.61297258  0.17240655     0.43880
N563        N  0.74890097  0.64349480  0.15768518    -0.34660
N564        N  0.74545200  0.62562929  0.16785197    -0.28910
C565        C  0.76399801  0.61791960  0.17458838    -0.05010
C566        C  0.77979636  0.63139115  0.16796219     0.07200
C567        C  0.76968837  0.64735190  0.15724823     0.01000
H568        H  0.76580877  0.60376108  0.18387949     0.08650
H569        H  0.77679190  0.66146653  0.15084757     0.07730
N570        N  0.68380313  0.60474167  0.17303575    -0.36110
N571        N  0.66848722  0.61859106  0.17091873    -0.28290
C572        C  0.64988268  0.60846182  0.17128579    -0.03530
C573        C  0.65358902  0.58709435  0.17352047     0.05090
C574        C  0.67529494  0.58538195  0.17481597     0.03180
H575        H  0.63486202  0.61627964  0.17038220     0.08280
H576        H  0.68425545  0.57103653  0.17657292     0.07120
N577        N  0.18080658  0.18486840  0.64899986    -0.27270
N578        N  0.19983498  0.18989929  0.64232800    -0.35130
C579        C  0.20068570  0.21082642  0.63899430     0.01070
C580        C  0.18135842  0.21924776  0.64417233     0.07100
C581        C  0.16918053  0.20239596  0.65049301    -0.06000
H582        H  0.21475673  0.21944013  0.63475520     0.07760
H583        H  0.15327198  0.20289931  0.65643115     0.08960
Cu584      Cu  0.22469053  0.16878803  0.64270696     0.44170
Cu585      Cu  0.17175052  0.15479751  0.65725466     0.41990
Cu586      Cu  0.21321406  0.11834450  0.66781869     0.43880
N587        N  0.24741818  0.14789828  0.65333221    -0.34660
N588        N  0.24317386  0.13041348  0.66385170    -0.28910
C589        C  0.26118169  0.12236038  0.67145110    -0.05010
C590        C  0.27751189  0.13519327  0.66507995     0.07200
C591        C  0.26830945  0.15115914  0.65356273     0.01000
H592        H  0.26224959  0.10836407  0.68109897     0.08650
H593        H  0.27607101  0.16483895  0.64698780     0.07730
N594        N  0.18179066  0.10991331  0.66760702    -0.36110
N595        N  0.16654193  0.12339873  0.66361066    -0.28290
C596        C  0.14802479  0.11317064  0.66372424    -0.03530
C597        C  0.15184384  0.09214816  0.66782545     0.05090
C598        C  0.17339441  0.09067648  0.67041368     0.03180
H599        H  0.13298823  0.12064728  0.66125450     0.08280
H600        H  0.18234468  0.07657592  0.67363334     0.07120
N601        N  0.33404924  0.13822595  0.67116280    -0.27270
N602        N  0.32871670  0.13146391  0.69007405    -0.35130
C603        C  0.30779937  0.12824189  0.69049604     0.01070
C604        C  0.29970623  0.13359770  0.67101672     0.07100
C605        C  0.31672026  0.13992794  0.65919001    -0.06000
H606        H  0.29898789  0.12385686  0.70435533     0.07760
H607        H  0.31648652  0.14585306  0.64324021     0.08960
Cu608      Cu  0.34946045  0.13141277  0.71533406     0.44170
Cu609      Cu  0.36434213  0.14587119  0.66265437     0.41990
Cu610      Cu  0.40059706  0.15523019  0.70492037     0.43880
N611        N  0.37000339  0.14185518  0.73854507    -0.34660
N612        N  0.38780503  0.15197654  0.73469797    -0.28910
C613        C  0.39545943  0.15978708  0.75284936    -0.05010
C614        C  0.38202301  0.15394185  0.76885258     0.07200
C615        C  0.36613185  0.14253204  0.75929450     0.01000
H616        H  0.40956395  0.16927032  0.75422596     0.08650
H617        H  0.35207408  0.13640343  0.76666510     0.07730
N618        N  0.40931894  0.15496642  0.67353245    -0.36110
N619        N  0.39589709  0.15146289  0.65802241    -0.28290
C620        C  0.40627601  0.15154980  0.63965937    -0.03530
C621        C  0.42723360  0.15559893  0.64377359     0.05090
C622        C  0.42866368  0.15742014  0.66543808     0.03180
H623        H  0.39910579  0.14874925  0.62446549     0.08280
H624        H  0.44277582  0.15996185  0.67464916     0.07120
N625        N  0.15829663  0.33797440  0.69659543    -0.27270
N626        N  0.15168604  0.31870618  0.70098704    -0.35130
C627        C  0.14761462  0.31741610  0.72170566     0.01070
C628        C  0.15224049  0.33670732  0.73072572     0.07100
C629        C  0.15903403  0.34932530  0.71440304    -0.06000
H630        H  0.14318980  0.30309860  0.72982270     0.07760
H631        H  0.16469311  0.36538101  0.71547054     0.08960
Cu632      Cu  0.15298933  0.29416240  0.67948733     0.44170
Cu633      Cu  0.16721280  0.34766958  0.66688783     0.41990
Cu634      Cu  0.18017116  0.30638366  0.63064070     0.43880
N635        N  0.16426162  0.27165990  0.65876485    -0.34660
N636        N  0.17554308  0.27610354  0.64188381    -0.28910
C637        C  0.18311088  0.25809741  0.63378922    -0.05010
C638        C  0.17593266  0.24158326  0.64597442     0.07200
C639        C  0.16398118  0.25068499  0.66159042     0.01000
H640        H  0.19321794  0.25714078  0.62017965     0.08650
H641        H  0.15666895  0.24276275  0.67475386     0.07730
N642        N  0.17936612  0.33793520  0.62238513    -0.36110
N643        N  0.17430494  0.35307334  0.63565143    -0.28290
C644        C  0.17359865  0.37150090  0.62525886    -0.03530
C645        C  0.17840850  0.36777608  0.60438094     0.05090
C646        C  0.18212318  0.34633019  0.60318925     0.03180
H647        H  0.16967044  0.38642426  0.63239580     0.08280
H648        H  0.18575528  0.33735198  0.58922245     0.07120
N649        N  0.37712898  0.16122634  0.82512676    -0.27270
N650        N  0.38400444  0.18010398  0.81957000    -0.35130
C651        C  0.38792575  0.18008226  0.79878509     0.01070
C652        C  0.38292524  0.16036231  0.79097029     0.07100
C653        C  0.37605308  0.14885525  0.80803402    -0.06000
H654        H  0.39259078  0.19379298  0.78980704     0.07760
H655        H  0.37022641  0.13282356  0.80797184     0.08960
Cu656      Cu  0.38362718  0.20595149  0.83959986     0.44170
Cu657      Cu  0.36876742  0.15308560  0.85540644     0.41990
Cu658      Cu  0.36057351  0.19622679  0.89075842     0.43880
N659        N  0.37363875  0.22961137  0.85975181    -0.34660
N660        N  0.36387072  0.22594481  0.87771988    -0.28910
C661        C  0.35655494  0.24423459  0.88539385    -0.05010
C662        C  0.36233707  0.26017394  0.87178324     0.07200
C663        C  0.37320540  0.25040927  0.85575851     0.01000
H664        H  0.34749491  0.24575919  0.89967383     0.08650
H665        H  0.37922179  0.25770097  0.84161502     0.07730
N666        N  0.36049488  0.16499347  0.90016421    -0.36110
N667        N  0.36336605  0.14909152  0.88713866    -0.28290
C668        C  0.36316976  0.13097635  0.89808772    -0.03530
C669        C  0.35988273  0.13566928  0.91907419     0.05090
C670        C  0.35843191  0.15745544  0.91977817     0.03180
H671        H  0.36539930  0.11555275  0.89125514     0.08280
H672        H  0.35672634  0.16726725  0.93354634     0.07120
N673        N  0.35579757  0.31675106  0.86720523    -0.27270
N674        N  0.33752096  0.31145630  0.87556747    -0.35130
C675        C  0.33742513  0.29061524  0.87943712     0.01070
C676        C  0.35642052  0.28245577  0.87285859     0.07100
C677        C  0.36765144  0.29940673  0.86513358    -0.06000
H678        H  0.32401686  0.28185431  0.88522740     0.07760
H679        H  0.38312755  0.29911144  0.85814046     0.08960
Cu680      Cu  0.31224723  0.33195877  0.87717299     0.44170
Cu681      Cu  0.36359998  0.34716018  0.85844356     0.41990
Cu682      Cu  0.32043910  0.38310253  0.85277483     0.43880
N683        N  0.28808733  0.35183627  0.86796708    -0.34660
N684        N  0.29104357  0.36966105  0.85758656    -0.28910
C685        C  0.27234763  0.37675334  0.85065874    -0.05010
C686        C  0.25693172  0.36290905  0.85733669     0.07200
C687        C  0.26741532  0.34737400  0.86832651     0.01000
H688        H  0.27020074  0.39070406  0.84112889     0.08650
H689        H  0.26068781  0.33311072  0.87480262     0.07730
N690        N  0.35173160  0.39248588  0.85210878    -0.36110
N691        N  0.36756426  0.37918098  0.85388851    -0.28290
C692        C  0.38574504  0.39005207  0.85399536    -0.03530
C693        C  0.38112542  0.41124184  0.85250371     0.05090
C694        C  0.35941851  0.41222916  0.85115822     0.03180
H695        H  0.40113903  0.38310616  0.85588062     0.08280
H696        H  0.34986629  0.42621351  0.84977073     0.07120
N697        N  0.20062052  0.35537971  0.85166658    -0.27270
N698        N  0.20516510  0.36355913  0.83309767    -0.35130
C699        C  0.22573325  0.36859414  0.83267725     0.01070
C700        C  0.23452326  0.36299177  0.85177837     0.07100
C701        C  0.21820965  0.35460508  0.86339821    -0.06000
H702        H  0.23395933  0.37442107  0.81898261     0.07760
H703        H  0.21914536  0.34792961  0.87902455     0.08960
Cu704      Cu  0.18429547  0.36331369  0.80793896     0.44170
Cu705      Cu  0.17093725  0.34493829  0.86001201     0.41990
Cu706      Cu  0.13498168  0.33599196  0.81714725     0.43880
N707        N  0.16448071  0.35277222  0.78414979    -0.34660
N708        N  0.14736920  0.34135801  0.78748253    -0.28910
C709        C  0.14005839  0.33416748  0.76893382    -0.05010
C710        C  0.15299465  0.34175721  0.75322407     0.07200
C711        C  0.16823900  0.35354135  0.76337870     0.01000
H712        H  0.12649746  0.32399471  0.76706445     0.08650
H713        H  0.18180842  0.36100977  0.75631909     0.07730
N714        N  0.12601857  0.33566862  0.84848448    -0.36110
N715        N  0.13928155  0.33871325  0.86424471    -0.28290
C716        C  0.12849099  0.33920210  0.88239321    -0.03530
C717        C  0.10739677  0.33667104  0.87777443     0.05090
C718        C  0.10640080  0.33424214  0.85616672     0.03180
H719        H  0.13537073  0.34222874  0.89767648     0.08280
H720        H  0.09237596  0.33235464  0.84667301     0.07120
N721        N  0.15351600  0.65607671  0.23607190    -0.27270
N722        N  0.17128324  0.64584747  0.23945730    -0.35130
C723        C  0.17541720  0.64577359  0.26020585     0.01070
C724        C  0.15972146  0.65681757  0.27026266     0.07100
C725        C  0.14614730  0.66323720  0.25453572    -0.06000
H726        H  0.18955065  0.63946066  0.26726591     0.07760
H727        H  0.13216846  0.67271143  0.25631987     0.08960
Cu728      Cu  0.19137956  0.63656694  0.21558125     0.44170
Cu729      Cu  0.14059822  0.66037053  0.20637897     0.41990
Cu730      Cu  0.17687401  0.65523376  0.16358006     0.43880
N731        N  0.21201271  0.63802534  0.19039487    -0.34660
N732        N  0.20701859  0.64629272  0.17195922    -0.28910
C733        C  0.22449405  0.64816955  0.16027294    -0.05010
C734        C  0.24120351  0.64042860  0.17178088     0.07200
C735        C  0.23277049  0.63403877  0.19075684     0.01000
H736        H  0.22504126  0.65504274  0.14471639     0.08650
H737        H  0.24129781  0.62827976  0.20432213     0.07730
N738        N  0.14500185  0.66007782  0.15923217    -0.36110
N739        N  0.13159698  0.66143083  0.17499506    -0.28290
C740        C  0.11196292  0.66234573  0.16718915    -0.03530
C741        C  0.11306890  0.66177553  0.14545088     0.05090
C742        C  0.13428335  0.66032417  0.14095710     0.03180
H743        H  0.09787396  0.66288894  0.17665338     0.08280
H744        H  0.14133910  0.65845291  0.12562507     0.07120
N745        N  0.16448222  0.66209338  0.32688916    -0.27270
N746        N  0.15923749  0.68155621  0.32172381    -0.35130
C747        C  0.15567997  0.68241684  0.30086965     0.01070
C748        C  0.15919692  0.66262409  0.29257266     0.07100
C749        C  0.16486348  0.65016441  0.30944325    -0.06000
H750        H  0.15220263  0.69666641  0.29221789     0.07760
H751        H  0.16930638  0.63374070  0.30903217     0.08960
Cu752      Cu  0.16107991  0.70662585  0.34261247     0.44170
Cu753      Cu  0.17135029  0.65276118  0.35731144     0.41990
Cu754      Cu  0.18316560  0.69465187  0.39386068     0.43880
N755        N  0.17163714  0.72926627  0.36373652    -0.34660
N756        N  0.18117406  0.72486039  0.38171158    -0.28910
C757        C  0.18837633  0.74285813  0.39035232    -0.05010
C758        C  0.18271674  0.75932569  0.37734405     0.07200
C759        C  0.17209293  0.75020468  0.36069166     0.01000
H760        H  0.19692774  0.74387107  0.40504978     0.08650
H761        H  0.16596572  0.75810881  0.34691416     0.07730
N762        N  0.17947773  0.66342415  0.40264688    -0.36110
N763        N  0.17523697  0.64804851  0.38927189    -0.28290
C764        C  0.17258642  0.62998803  0.40002312    -0.03530
C765        C  0.17498812  0.63429671  0.42118566     0.05090
C766        C  0.17955556  0.65559239  0.42227391     0.03180
H767        H  0.16849172  0.61499645  0.39301671     0.08280
H768        H  0.18262635  0.66479904  0.43625356     0.07120
N769        N  0.36272964  0.68794608  0.15244572    -0.27270
N770        N  0.34394272  0.69336008  0.14535204    -0.35130
C771        C  0.34377512  0.71424396  0.14176090     0.01070
C772        C  0.36324870  0.72232470  0.14723031     0.07100
C773        C  0.37484578  0.70527862  0.15402001    -0.06000
H774        H  0.33005822  0.72308876  0.13699485     0.07760
H775        H  0.39074602  0.70550433  0.16010660     0.08960
Cu776      Cu  0.31823437  0.67308444  0.14518269     0.44170
Cu777      Cu  0.37083156  0.65747074  0.16059911     0.41990
Cu778      Cu  0.32727375  0.62261130  0.17014090     0.43880
N779        N  0.29432204  0.65309308  0.15511357    -0.34660
N780        N  0.29771316  0.63540678  0.16556320    -0.28910
C781        C  0.27927336  0.62788131  0.17270074    -0.05010
C782        C  0.26353115  0.64129826  0.16612421     0.07200
C783        C  0.27356538  0.65705410  0.15495011     0.01000
H784        H  0.27751854  0.61388284  0.18225141     0.08650
H785        H  0.26647415  0.67105844  0.14837450     0.07730
N786        N  0.35834966  0.61301148  0.17088820    -0.36110
N787        N  0.37437328  0.62575125  0.16714513    -0.28290
C788        C  0.39229304  0.61459233  0.16770082    -0.03530
C789        C  0.38733172  0.59383322  0.17224311     0.05090
C790        C  0.36562645  0.59342013  0.17402337     0.03180
H791        H  0.40776898  0.62109804  0.16486074     0.08280
H792        H  0.35573347  0.57978464  0.17665619     0.07120
N793        N  0.18664050  0.81617850  0.37548521    -0.27270
N794        N  0.20574592  0.81149541  0.38220842    -0.35130
C795        C  0.20693108  0.79053678  0.38523756     0.01070
C796        C  0.18774115  0.78173846  0.37979953     0.07100
C797        C  0.17530804  0.79839531  0.37363825    -0.06000
H798        H  0.22115917  0.78218443  0.38933865     0.07760
H799        H  0.15944158  0.79758766  0.36750564     0.08960
Cu800      Cu  0.23029846  0.83314973  0.38196751     0.44170
Cu801      Cu  0.17711446  0.84615606  0.36748310     0.41990
Cu802      Cu  0.21806185  0.88379368  0.35783878     0.43880
N803        N  0.25269677  0.85430067  0.37097530    -0.34660
N804        N  0.24818984  0.87187220  0.36074258    -0.28910
C805        C  0.26598510  0.87997144  0.35262536    -0.05010
C806        C  0.28244793  0.86706401  0.35837770     0.07200
C807        C  0.27353051  0.85103374  0.37006062     0.01000
H808        H  0.26681254  0.89403775  0.34305094     0.08650
H809        H  0.28140665  0.83728943  0.37627538     0.07730
N810        N  0.18647280  0.89154321  0.35835131    -0.36110
N811        N  0.17138917  0.87756493  0.36161688    -0.28290
C812        C  0.15272310  0.88740294  0.36168640    -0.03530
C813        C  0.15626657  0.90858960  0.35819753     0.05090
C814        C  0.17782698  0.91072642  0.35639059     0.03180
H815        H  0.13777527  0.87980289  0.36466925     0.08280
H816        H  0.18658822  0.92518717  0.35413310     0.07120
N817        N  0.33870142  0.86340168  0.35084488    -0.27270
N818        N  0.33299609  0.87062464  0.33219073    -0.35130
C819        C  0.31214089  0.87419442  0.33231893     0.01070
C820        C  0.30448678  0.86861301  0.35189438     0.07100
C821        C  0.32169796  0.86178946  0.36318507    -0.06000
H822        H  0.30303419  0.87899377  0.31875620     0.07760
H823        H  0.32179732  0.85557614  0.37902667     0.08960
Cu824      Cu  0.35319355  0.87108238  0.30656423     0.44170
Cu825      Cu  0.36903453  0.85519987  0.35869574     0.41990
Cu826      Cu  0.40545943  0.84963665  0.31636134     0.43880
N827        N  0.37375046  0.86153820  0.28311606    -0.34660
N828        N  0.39202481  0.85232410  0.28677887    -0.28910
C829        C  0.39974127  0.84493823  0.26855660    -0.05010
C830        C  0.38585094  0.85012665  0.25267660     0.07200
C831        C  0.36962443  0.86070854  0.26238817     0.01000
H832        H  0.41423986  0.83622655  0.26704487     0.08650
H833        H  0.35525435  0.86620718  0.25512351     0.07730
N834        N  0.41438992  0.84930954  0.34769969    -0.36110
N835        N  0.40078980  0.85082555  0.36327327    -0.28290
C836        C  0.41120817  0.85064231  0.38167245    -0.03530
C837        C  0.43239633  0.84888265  0.37744153     0.05090
C838        C  0.43392149  0.84830546  0.35576753     0.03180
H839        H  0.40396465  0.85236239  0.39693724     0.08280
H840        H  0.44816611  0.84750152  0.34656099     0.07120
N841        N  0.38098238  0.84326694  0.19630282    -0.27270
N842        N  0.38872904  0.82470123  0.20162124    -0.35130
C843        C  0.39272572  0.82465882  0.22242374     0.01070
C844        C  0.38685681  0.84398284  0.23048851     0.07100
C845        C  0.37941823  0.85533377  0.21355724    -0.06000
H846        H  0.39806422  0.81110388  0.23123342     0.07760
H847        H  0.37289058  0.87103968  0.21381229     0.08960
Cu848      Cu  0.38942530  0.79911300  0.18122543     0.44170
Cu849      Cu  0.37202766  0.85143531  0.16614946     0.41990
Cu850      Cu  0.36547235  0.80867252  0.13019676     0.43880
N851        N  0.38010677  0.77536629  0.16065554    -0.34660
N852        N  0.37002829  0.77895576  0.14279088    -0.28910
C853        C  0.36298586  0.76056265  0.13495154    -0.05010
C854        C  0.36926749  0.74462754  0.14831076     0.07200
C855        C  0.38015513  0.75450224  0.16438987     0.01000
H856        H  0.35360574  0.75897537  0.12081803     0.08650
H857        H  0.38633353  0.74722787  0.17848757     0.07730
N858        N  0.36382020  0.83996820  0.12120307    -0.36110
N859        N  0.36597282  0.85578061  0.13453405    -0.28290
C860        C  0.36515922  0.87405777  0.12387418    -0.03530
C861        C  0.36221820  0.86947731  0.10282132     0.05090
C862        C  0.36168416  0.84772905  0.10166105     0.03180
H863        H  0.36740856  0.88946275  0.13080307     0.08280
H864        H  0.36040394  0.83825027  0.08758254     0.07120
N865        N  0.65952782  0.15167786  0.19751996    -0.27270
N866        N  0.65175676  0.17024420  0.20270280    -0.35130
C867        C  0.64815988  0.17051502  0.22353276     0.01070
C868        C  0.65431502  0.15134355  0.23178646     0.07100
C869        C  0.66150790  0.13981696  0.21491395    -0.06000
H870        H  0.64281136  0.18411977  0.23220702     0.07760
H871        H  0.66806340  0.12412370  0.21528070     0.08960
Cu872      Cu  0.65040919  0.19559246  0.18206508     0.44170
Cu873      Cu  0.66771562  0.14341049  0.16725539     0.41990
Cu874      Cu  0.67460922  0.18648064  0.13131179     0.43880
N875        N  0.65929252  0.21954183  0.16162351    -0.34660
N876        N  0.66951828  0.21619700  0.14386564    -0.28910
C877        C  0.67624346  0.23477326  0.13617260    -0.05010
C878        C  0.66961073  0.25054778  0.14952878     0.07200
C879        C  0.65884221  0.24038037  0.16544050     0.01000
H880        H  0.68567350  0.23660523  0.12216136     0.08650
H881        H  0.65250185  0.24745399  0.17951846     0.07730
N882        N  0.67588258  0.15508108  0.12232703    -0.36110
N883        N  0.67314514  0.13926667  0.13555225    -0.28290
C884        C  0.67379496  0.12100199  0.12489391    -0.03530
C885        C  0.67708658  0.12552195  0.10387093     0.05090
C886        C  0.67846807  0.14729283  0.10286903     0.03180
H887        H  0.67206173  0.10561849  0.13200167     0.08280
H888        H  0.68067528  0.15680748  0.08892755     0.07120
N889        N  0.67545322  0.30736610  0.15407693    -0.27270
N890        N  0.69419151  0.30221814  0.14676551    -0.35130
C891        C  0.69457577  0.28136182  0.14307307     0.01070
C892        C  0.67531580  0.27297026  0.14868329     0.07100
C893        C  0.66360297  0.28983785  0.15568990    -0.06000
H894        H  0.70831161  0.27274843  0.13804795     0.07760
H895        H  0.64777576  0.28936662  0.16185108     0.08960
Cu896      Cu  0.71970560  0.32273502  0.14610664     0.44170
Cu897      Cu  0.66697825  0.33786665  0.16208181     0.41990
Cu898      Cu  0.71069859  0.37320512  0.17020573     0.43880
N899        N  0.74375209  0.34299024  0.15529075    -0.34660
N900        N  0.74039944  0.36078197  0.16551546    -0.28910
C901        C  0.75891648  0.36857550  0.17228954    -0.05010
C902        C  0.77467158  0.35522599  0.16567966     0.07200
C903        C  0.76454624  0.33921897  0.15489038     0.01000
H904        H  0.76072479  0.38268736  0.18165722     0.08650
H905        H  0.77162610  0.32516187  0.14848032     0.07730
N906        N  0.67954953  0.38265730  0.17098335    -0.36110
N907        N  0.66343541  0.36983409  0.16783757    -0.28290
C908        C  0.64552394  0.38105372  0.16846376    -0.03530
C909        C  0.65061402  0.40192701  0.17242359     0.05090
C910        C  0.67236163  0.40231752  0.17376318     0.03180
H911        H  0.62995921  0.37449545  0.16620401     0.08280
H912        H  0.68234124  0.41596833  0.17600292     0.07120
N913        N  0.70342967  0.13223619  0.35247883    -0.27270
N914        N  0.70845230  0.12474358  0.33376619    -0.35130
C915        C  0.72925487  0.12096829  0.33336634     0.01070
C916        C  0.73766802  0.12672225  0.35260948     0.07100
C917        C  0.72090487  0.13384924  0.36430245    -0.06000
H918        H  0.73783774  0.11598286  0.31959426     0.07760
H919        H  0.72144567  0.14035266  0.38001289     0.08960
Cu920      Cu  0.68781452  0.12445221  0.30836277     0.44170
Cu921      Cu  0.67343419  0.14131034  0.36088490     0.41990
Cu922      Cu  0.63797904  0.15025356  0.31799342     0.43880
N923        N  0.66751492  0.13436388  0.28470982    -0.34660
N924        N  0.65008534  0.14504086  0.28832807    -0.28910
C925        C  0.64237846  0.15223846  0.26999022    -0.05010
C926        C  0.65539452  0.14548568  0.25406519     0.07200
C927        C  0.67111077  0.13411642  0.26388092     0.01000
H928        H  0.62859048  0.16204651  0.26843846     0.08650
H929        H  0.68489973  0.12743166  0.25658806     0.07730
N930        N  0.62916076  0.15239693  0.34917758    -0.36110
N931        N  0.64217620  0.14898420  0.36501725    -0.28290
C932        C  0.63154540  0.15055530  0.38317612    -0.03530
C933        C  0.61083053  0.15538135  0.37854391     0.05090
C934        C  0.60989804  0.15628239  0.35679315     0.03180
H935        H  0.63836082  0.14811976  0.39858570     0.08280
H936        H  0.59611075  0.15875616  0.34712275     0.07120
N937        N  0.83130915  0.35038749  0.17138482    -0.27270
N938        N  0.82634101  0.35817633  0.18999731    -0.35130
C939        C  0.80558538  0.36216356  0.19036923     0.01070
C940        C  0.79708017  0.35624737  0.17123037     0.07100
C941        C  0.81377655  0.34878859  0.15960319    -0.06000
H942        H  0.79708179  0.36746236  0.20407398     0.07760
H943        H  0.81315504  0.34217407  0.14394245     0.08960
Cu944      Cu  0.84683010  0.35866769  0.21547796     0.44170
Cu945      Cu  0.86146021  0.34128165  0.16308340     0.41990
Cu946      Cu  0.89688056  0.33355451  0.20640105     0.43880
N947        N  0.86672584  0.34867182  0.23939179    -0.34660
N948        N  0.88426247  0.33811827  0.23596055    -0.28910
C949        C  0.89176059  0.33087267  0.25437087    -0.05010
C950        C  0.87849495  0.33750960  0.27013991     0.07200
C951        C  0.86284603  0.34882337  0.26016414     0.01000
H952        H  0.90566687  0.32126158  0.25609187     0.08650
H953        H  0.84898312  0.35551275  0.26731256     0.07730
N954        N  0.90613753  0.33200018  0.17529956    -0.36110
N955        N  0.89314011  0.33466126  0.15930355    -0.28290
C956        C  0.90408448  0.33345705  0.14128946    -0.03530
C957        C  0.92504051  0.32977168  0.14614621     0.05090
C958        C  0.92568709  0.32911896  0.16794520     0.03180
H959        H  0.89728620  0.33540435  0.12580603     0.08280
H960        H  0.93939704  0.32754799  0.17789470     0.07120
N961        N  0.87457524  0.33246852  0.32677981    -0.27270
N962        N  0.88198129  0.31367000  0.32194567    -0.35130
C963        C  0.88542279  0.31288363  0.30109930     0.01070
C964        C  0.87953857  0.33199200  0.29249698     0.07100
C965        C  0.87266668  0.34399524  0.30916626    -0.06000
H966        H  0.89048582  0.29901140  0.29267678     0.07760
H967        H  0.86640081  0.35979921  0.30852183     0.08960
Cu968      Cu  0.88292368  0.28894040  0.34328874     0.44170
Cu969      Cu  0.86677096  0.34136970  0.35691583     0.41990
Cu970      Cu  0.85889057  0.29939049  0.39409578     0.43880
N971        N  0.87344518  0.26567355  0.36418932    -0.34660
N972        N  0.86323168  0.26941523  0.38187871    -0.28910
C973        C  0.85619866  0.25103166  0.38979959    -0.05010
C974        C  0.86264688  0.23501257  0.37664446     0.07200
C975        C  0.87360199  0.24480859  0.36065515     0.01000
H976        H  0.84683549  0.24949225  0.40388929     0.08650
H977        H  0.87999679  0.23745106  0.34674784     0.07730
N978        N  0.85831413  0.33106547  0.40215551    -0.36110
N979        N  0.86134279  0.34641299  0.38844173    -0.28290
C980        C  0.86092454  0.36501666  0.39848951    -0.03530
C981        C  0.85713656  0.36123661  0.41952007     0.05090
C982        C  0.85580999  0.33952491  0.42135057     0.03180
H983        H  0.86333631  0.38015543  0.39104658     0.08280
H984        H  0.85360740  0.33054052  0.43563968     0.07120
N985        N  0.85743679  0.17835727  0.37174269    -0.27270
N986        N  0.83866395  0.18305290  0.37922633    -0.35130
C987        C  0.83801972  0.20384548  0.38333816     0.01070
C988        C  0.85719691  0.21256758  0.37783396     0.07100
C989        C  0.86907086  0.19600724  0.37048336    -0.06000
H990        H  0.82414418  0.21221896  0.38838310     0.07760
H991        H  0.88478071  0.19681328  0.36405846     0.08960
Cu992      Cu  0.81371445  0.16180306  0.37913059     0.44170
Cu993      Cu  0.86616779  0.14853408  0.36231614     0.41990
Cu994      Cu  0.82429967  0.11166857  0.35338414     0.43880
N995        N  0.79053956  0.14085964  0.36917393    -0.34660
N996        N  0.79439787  0.12341838  0.35850708    -0.28910
C997        C  0.77611948  0.11535541  0.35140367    -0.05010
C998        C  0.76001501  0.12813428  0.35824104     0.07200
C999        C  0.76966058  0.14408010  0.36952534     0.01000
H1000       H  0.77471477  0.10146246  0.34165260     0.08650
H1001       H  0.76218584  0.15777326  0.37626022     0.07730
N1002       N  0.85580324  0.10366273  0.35164204    -0.36110
N1003       N  0.87119476  0.11728771  0.35497845    -0.28290
C1004       C  0.88968602  0.10717424  0.35411685    -0.03530
C1005       C  0.88578379  0.08618296  0.34977232     0.05090
C1006       C  0.86409084  0.08447562  0.34853645     0.03180
H1007       H  0.90482659  0.11445605  0.35700193     0.08280
H1008       H  0.85489463  0.07023236  0.34675683     0.07120
N1009       N  0.35498124  0.31568579  0.15437543    -0.27270
N1010       N  0.33637008  0.31071677  0.14647343    -0.35130
C1011       C  0.33555411  0.28979085  0.14324038     0.01070
C1012       C  0.35444327  0.28125513  0.14976748     0.07100
C1013       C  0.36636568  0.29806430  0.15677887    -0.06000
H1014       H  0.32176662  0.28128543  0.13790413     0.07760
H1015       H  0.38199558  0.29750537  0.16350730     0.08960
Cu1016     Cu  0.31173554  0.33193316  0.14475257     0.44170
Cu1017     Cu  0.36374207  0.34604702  0.16218275     0.41990
Cu1018     Cu  0.32145749  0.38294662  0.16901554     0.43880
N1019       N  0.28817524  0.35228271  0.15417117    -0.34660
N1020       N  0.29159755  0.37001924  0.16456951    -0.28910
C1021       C  0.27309315  0.37732212  0.17172733    -0.05010
C1022       C  0.25734974  0.36370814  0.16516209     0.07200
C1023       C  0.26744544  0.34810442  0.15401576     0.01000
H1024       H  0.27128962  0.39125572  0.18132401     0.08650
H1025       H  0.26042441  0.33395225  0.14757760     0.07730
N1026       N  0.35312804  0.39154115  0.16927297    -0.36110
N1027       N  0.36854594  0.37791669  0.16665978    -0.28290
C1028       C  0.38703579  0.38825350  0.16661133    -0.03530
C1029       C  0.38315626  0.40951947  0.16926022     0.05090
C1030       C  0.36145942  0.41097253  0.17104349     0.03180
H1031       H  0.40215494  0.38073571  0.16488605     0.08280
H1032       H  0.35235682  0.42518690  0.17302460     0.07120
N1033       N  0.37832446  0.15979958  0.19698793    -0.27270
N1034       N  0.38453793  0.17893255  0.20249739    -0.35130
C1035       C  0.38820614  0.17921139  0.22334360     0.01070
C1036       C  0.38372727  0.15942992  0.23126821     0.07100
C1037       C  0.37743787  0.14755555  0.21419995    -0.06000
H1038       H  0.39215327  0.19317550  0.23228650     0.07760
H1039       H  0.37193955  0.13141076  0.21436257     0.08960
Cu1040     Cu  0.38308504  0.20484024  0.18260402     0.44170
Cu1041     Cu  0.36980555  0.15126478  0.16674861     0.41990
Cu1042     Cu  0.35678986  0.19475263  0.13331203     0.43880
N1043       N  0.37160037  0.22839964  0.16309873    -0.34660
N1044       N  0.36049446  0.22453659  0.14591332    -0.28910
C1045       C  0.35283691  0.24275644  0.13836772    -0.05010
C1046       C  0.35979322  0.25886124  0.15123027     0.07200
C1047       C  0.37169642  0.24926740  0.16670084     0.01000
H1048       H  0.34296251  0.24415030  0.12455926     0.08650
H1049       H  0.37897832  0.25676372  0.18016247     0.07730
N1050       N  0.35833861  0.16396042  0.12289023    -0.36110
N1051       N  0.36286178  0.14783884  0.13515079    -0.28290
C1052       C  0.36339196  0.13021778  0.12345781    -0.03530
C1053       C  0.35904743  0.13544287  0.10267230     0.05090
C1054       C  0.35612146  0.15713835  0.10304947     0.03180
H1055       H  0.36694499  0.11479072  0.12969798     0.08280
H1056       H  0.35348324  0.16762068  0.08995693     0.07120
N1057       N  0.33373128  0.14004886  0.35110194    -0.27270
N1058       N  0.32834092  0.13297327  0.33228999    -0.35130
C1059       C  0.30745506  0.12950987  0.33194505     0.01070
C1060       C  0.29944864  0.13502432  0.35136176     0.07100
C1061       C  0.31648038  0.14168606  0.36307694    -0.06000
H1062       H  0.29859189  0.12479789  0.31817300     0.07760
H1063       H  0.31631106  0.14776850  0.37895989     0.08960
Cu1064     Cu  0.34894454  0.13256389  0.30701521     0.44170
Cu1065     Cu  0.36397344  0.14805527  0.35961727     0.41990
Cu1066     Cu  0.40044859  0.15549269  0.31754392     0.43880
N1067       N  0.36978413  0.14222022  0.28381179    -0.34660
N1068       N  0.38776480  0.15202611  0.28773021    -0.28910
C1069       C  0.39578159  0.15929323  0.26956563    -0.05010
C1070       C  0.38241658  0.15338917  0.25346167     0.07200
C1071       C  0.36615287  0.14254830  0.26297769     0.01000
H1072       H  0.41010667  0.16843334  0.26823963     0.08650
H1073       H  0.35205205  0.13657125  0.25548287     0.07730
N1074       N  0.40919224  0.15543991  0.34891770    -0.36110
N1075       N  0.39563124  0.15295620  0.36441370    -0.28290
C1076       C  0.40605038  0.15269152  0.38281322    -0.03530
C1077       C  0.42719562  0.15528140  0.37866965     0.05090
C1078       C  0.42868404  0.15672539  0.35702961     0.03180
H1079       H  0.39885087  0.15008336  0.39798427     0.08280
H1080       H  0.44290860  0.15816815  0.34785336     0.07120
N1081       N  0.18021536  0.18518042  0.37384086    -0.27270
N1082       N  0.19928885  0.19027029  0.38048116    -0.35130
C1083       C  0.20011335  0.21120028  0.38379117     0.01070
C1084       C  0.18073777  0.21958534  0.37861640     0.07100
C1085       C  0.16855172  0.20269977  0.37231991    -0.06000
H1086       H  0.21420153  0.21984763  0.38798828     0.07760
H1087       H  0.15260500  0.20317936  0.36637817     0.08960
Cu1088     Cu  0.22432425  0.16936788  0.38001426     0.44170
Cu1089     Cu  0.17110652  0.15505019  0.36557770     0.41990
Cu1090     Cu  0.21303525  0.11951510  0.35409717     0.43880
N1091       N  0.24719007  0.14881081  0.36920565    -0.34660
N1092       N  0.24297555  0.13149332  0.35840684    -0.28910
C1093       C  0.26097748  0.12361670  0.35074442    -0.05010
C1094       C  0.27728681  0.13640538  0.35733994     0.07200
C1095       C  0.26807003  0.15215227  0.36907749     0.01000
H1096       H  0.26204742  0.10979980  0.34086594     0.08650
H1097       H  0.27580414  0.16576355  0.37585710     0.07730
N1098       N  0.18176238  0.11063332  0.35408261    -0.36110
N1099       N  0.16628830  0.12367284  0.35852645    -0.28290
C1100       C  0.14799931  0.11300432  0.35829015    -0.03530
C1101       C  0.15220261  0.09217114  0.35350650     0.05090
C1102       C  0.17377375  0.09130448  0.35082761     0.03180
H1103       H  0.13283841  0.11998911  0.36134087     0.08280
H1104       H  0.18307053  0.07750995  0.34736476     0.07120
N1105       N  0.20096949  0.35675455  0.17107110    -0.27270
N1106       N  0.20586177  0.36447646  0.18976667    -0.35130
C1107       C  0.22650188  0.36925566  0.19015613     0.01070
C1108       C  0.23499151  0.36397925  0.17088549     0.07100
C1109       C  0.21840983  0.35601994  0.15921664    -0.06000
H1110       H  0.23496544  0.37470603  0.20390709     0.07760
H1111       H  0.21906029  0.34969080  0.14344534     0.08960
Cu1112     Cu  0.18519208  0.36409109  0.21496776     0.44170
Cu1113     Cu  0.17092058  0.34706973  0.16272502     0.41990
Cu1114     Cu  0.13471972  0.33887407  0.20549876     0.43880
N1115       N  0.16523897  0.35382046  0.23865586    -0.34660
N1116       N  0.14766286  0.34313051  0.23523995    -0.28910
C1117       C  0.14027597  0.33596263  0.25374196    -0.05010
C1118       C  0.15365042  0.34284605  0.26950303     0.07200
C1119       C  0.16922614  0.35416496  0.25942039     0.01000
H1120       H  0.12631961  0.32634688  0.25555437     0.08650
H1121       H  0.18310974  0.36106646  0.26652127     0.07730
N1122       N  0.12564860  0.33934468  0.17408033    -0.36110
N1123       N  0.13900171  0.34194172  0.15839607    -0.28290
C1124       C  0.12823601  0.34250034  0.14016077    -0.03530
C1125       C  0.10707613  0.34050352  0.14461626     0.05090
C1126       C  0.10599869  0.33835683  0.16624717     0.03180
H1127       H  0.13522458  0.34497785  0.12487147     0.08280
H1128       H  0.09198808  0.33637867  0.17564336     0.07120
N1129       N  0.15898677  0.33873505  0.32619072    -0.27270
N1130       N  0.15211458  0.31957121  0.32168700    -0.35130
C1131       C  0.14800551  0.31843038  0.30093682     0.01070
C1132       C  0.15287284  0.33769396  0.29199590     0.07100
C1133       C  0.15985884  0.35014463  0.30840804    -0.06000
H1134       H  0.14335955  0.30421397  0.29275308     0.07760
H1135       H  0.16568915  0.36614333  0.30742303     0.08960
Cu1136     Cu  0.15298209  0.29484320  0.34306345     0.44170
Cu1137     Cu  0.16784469  0.34832566  0.35607254     0.41990
Cu1138     Cu  0.17863466  0.30662804  0.39274259     0.43880
N1139       N  0.16379102  0.27207952  0.36387118    -0.34660
N1140       N  0.17459330  0.27640671  0.38115235    -0.28910
C1141       C  0.18206294  0.25836117  0.38932948    -0.05010
C1142       C  0.17528504  0.24192663  0.37678195     0.07200
C1143       C  0.16369530  0.25112819  0.36085864     0.01000
H1144       H  0.19180642  0.25732077  0.40326153     0.08650
H1145       H  0.15675914  0.24329740  0.34740460     0.07730
N1146       N  0.17791522  0.33814029  0.40109996    -0.36110
N1147       N  0.17408657  0.35352126  0.38763066    -0.28290
C1148       C  0.17333867  0.37189652  0.39812561    -0.03530
C1149       C  0.17700494  0.36785583  0.41919591     0.05090
C1150       C  0.17960823  0.34627879  0.42052932     0.03180
H1151       H  0.16951206  0.38692434  0.39109310     0.08280
H1152       H  0.18191867  0.33709943  0.43468004     0.07120
C1153       C  0.51891439  0.15554545  0.46580166     0.03150
C1154       C  0.53798944  0.15679139  0.45474511    -0.13000
C1155       C  0.53815356  0.15601917  0.43269116     0.00650
C1156       C  0.51906792  0.15408191  0.42181940    -0.11530
C1157       C  0.49995806  0.15263151  0.43258281     0.03140
C1158       C  0.49993796  0.15345142  0.45461544    -0.10950
H1159       H  0.55262339  0.15867391  0.46331456     0.08740
H1160       H  0.51907967  0.15379939  0.40478331     0.06260
H1161       H  0.48521132  0.15216158  0.46304311     0.06110
C1162       C  0.47311269  0.50008755  0.17368599     0.03150
C1163       C  0.46226418  0.51937700  0.17473180    -0.13000
C1164       C  0.44038233  0.52005905  0.17189616     0.00650
C1165       C  0.42917698  0.50121743  0.16972318    -0.11530
C1166       C  0.43921769  0.48171484  0.17133416     0.03140
C1167       C  0.46132546  0.48119522  0.17250646    -0.10950
H1168       H  0.47068641  0.53386725  0.17787873     0.08740
H1169       H  0.41228428  0.50176748  0.16747102     0.06260
H1170       H  0.46929867  0.46615632  0.17278212     0.06110
C1171       C  0.17265743  0.45418781  0.51179059     0.03150
C1172       C  0.17472977  0.44322003  0.53086829    -0.13000
C1173       C  0.17626925  0.42117631  0.53097399     0.00650
C1174       C  0.17507663  0.41017806  0.51192001    -0.11530
C1175       C  0.17242945  0.42081974  0.49278972     0.03140
C1176       C  0.17137514  0.44291146  0.49280004    -0.10950
H1177       H  0.17564995  0.45186104  0.54553310     0.08740
H1178       H  0.17625860  0.39315799  0.51199997     0.06260
H1179       H  0.16954315  0.45134985  0.47809747     0.06110
C1180       C  0.85800180  0.44919441  0.51100241     0.03150
C1181       C  0.85796979  0.43760754  0.52987941    -0.13000
C1182       C  0.85966600  0.41551539  0.52956273     0.00650
C1183       C  0.86161474  0.40533208  0.51011212    -0.11530
C1184       C  0.86068843  0.41653257  0.49121288     0.03140
C1185       C  0.85903412  0.43852946  0.49166893    -0.10950
H1186       H  0.85611370  0.44585263  0.54464276     0.08740
H1187       H  0.86325087  0.38835308  0.50953429     0.06260
H1188       H  0.85841953  0.44730390  0.47706088     0.06110
C1189       C  0.52269067  0.84772312  0.46606676     0.03150
C1190       C  0.54168984  0.84552687  0.45509623    -0.13000
C1191       C  0.54180206  0.84544146  0.43304312     0.00650
C1192       C  0.52293550  0.84826903  0.42205545    -0.11530
C1193       C  0.50395089  0.85080650  0.43279158     0.03140
C1194       C  0.50383709  0.85039703  0.45483587    -0.10950
H1195       H  0.55628750  0.84356779  0.46369974     0.08740
H1196       H  0.52300940  0.84835618  0.40500889     0.06260
H1197       H  0.48916838  0.85239542  0.46320031     0.06110
C1198       C  0.47346910  0.49918111  0.85349314     0.03150
C1199       C  0.46323619  0.51876040  0.85229230    -0.13000
C1200       C  0.44123627  0.51967381  0.85195597     0.00650
C1201       C  0.42947328  0.50104451  0.85186486    -0.11530
C1202       C  0.43933667  0.48137378  0.85277329     0.03140
C1203       C  0.46140254  0.48053656  0.85388288    -0.10950
H1204       H  0.47234538  0.53321592  0.85199394     0.08740
H1205       H  0.41245589  0.50191961  0.85132315     0.06260
H1206       H  0.46923504  0.46552436  0.85553026     0.06110
C1207       C  0.02204876  0.65768544  0.96624979     0.03150
C1208       C  0.00297484  0.65670129  0.95496956    -0.13000
C1209       C  0.00297952  0.65644102  0.93290359     0.00650
C1210       C  0.02212677  0.65775309  0.92218454    -0.11530
C1211       C  0.04130864  0.65803212  0.93307631     0.03140
C1212       C  0.04118830  0.65769937  0.95517724    -0.10950
H1213       H  0.98819514  0.65593389  0.96336605     0.08740
H1214       H  0.02208897  0.65812915  0.90513865     0.06260
H1215       H  0.05586902  0.65721561  0.96380432     0.06110
C1216       C  0.01561663  0.33317101  0.96520009     0.03150
C1217       C  0.99647622  0.33320649  0.95395501    -0.13000
C1218       C  0.99636637  0.33341928  0.93188518     0.00650
C1219       C  0.01547040  0.33250631  0.92112579    -0.11530
C1220       C  0.03468567  0.33356224  0.93188607     0.03140
C1221       C  0.03467681  0.33399087  0.95397696    -0.10950
H1222       H  0.98167813  0.33316041  0.96234109     0.08740
H1223       H  0.01540643  0.33125274  0.90413575     0.06260
H1224       H  0.04943020  0.33539207  0.96241343     0.06110
C1225       C  0.97633584  0.99751464  0.35489593     0.03150
C1226       C  0.96556549  0.97819165  0.35615793    -0.13000
C1227       C  0.94355015  0.97769552  0.35639516     0.00650
C1228       C  0.93234243  0.99653915  0.35470290    -0.11530
C1229       C  0.94282845  0.01588967  0.35329957     0.03140
C1230       C  0.96489620  0.01634002  0.35310446    -0.10950
H1231       H  0.97431876  0.96361663  0.35723443     0.08740
H1232       H  0.91529678  0.99614475  0.35457946     0.06260
H1233       H  0.97310935  0.03127371  0.35185936     0.06110
C1234       C  0.97620709  0.99670747  0.67026541     0.03150
C1235       C  0.96584812  0.97718682  0.67157742    -0.13000
C1236       C  0.94391157  0.97629483  0.67277278     0.00650
C1237       C  0.93229575  0.99492203  0.67193961    -0.11530
C1238       C  0.94226254  0.01444982  0.66923502     0.03140
C1239       C  0.96434175  0.01529039  0.66870114    -0.10950
H1240       H  0.97487441  0.96274691  0.67200853     0.08740
H1241       H  0.91531928  0.99410878  0.67305053     0.06260
H1242       H  0.97229513  0.03031693  0.66702314     0.06110
C1243       C  0.36200170  0.95580390  0.01004457     0.03150
C1244       C  0.36214659  0.94472196  0.99089623    -0.13000
C1245       C  0.36331595  0.92267491  0.99079620     0.00650
C1246       C  0.36330657  0.91173310  0.00989830    -0.11530
C1247       C  0.36348906  0.92249757  0.02911605     0.03140
C1248       C  0.36253220  0.94459685  0.02911371    -0.10950
H1249       H  0.36184023  0.95327276  0.97614774     0.08740
H1250       H  0.36336337  0.89466062  0.00974441     0.06260
H1251       H  0.36267087  0.95309490  0.04388348     0.06110
C1252       C  0.68115410  0.91521007  0.03082092     0.03150
C1253       C  0.68029026  0.90413449  0.01185404    -0.13000
C1254       C  0.68012858  0.91488977  0.99263546     0.00650
C1255       C  0.68110518  0.93697337  0.99243385    -0.11530
C1256       C  0.68192852  0.94822853  0.01142717     0.03140
C1257       C  0.68199488  0.93728642  0.03063424    -0.10950
H1258       H  0.67968180  0.88706344  0.01204699     0.08740
H1259       H  0.68101309  0.94536514  0.97759249     0.06260
H1260       H  0.68253030  0.94590194  0.04532908     0.06110
C1261       C  0.01513959  0.33381331  0.05660491     0.03150
C1262       C  0.03429447  0.33730013  0.06721227    -0.13000
C1263       C  0.03511456  0.33726916  0.08927385     0.00650
C1264       C  0.01644082  0.33483781  0.10064137    -0.11530
C1265       C  0.99714708  0.33136530  0.09044935     0.03140
C1266       C  0.99677390  0.33015081  0.06836748    -0.10950
H1267       H  0.04844270  0.34028807  0.05826060     0.08740
H1268       H  0.01701047  0.33561127  0.11765391     0.06260
H1269       H  0.98227362  0.32614347  0.06034911     0.06110
C1270       C  0.02126137  0.65630034  0.05759121     0.03150
C1271       C  0.00194850  0.65629488  0.06835626    -0.13000
C1272       C  0.00142123  0.65853192  0.09031151     0.00650
C1273       C  0.02038900  0.66051441  0.10137086    -0.11530
C1274       C  0.03982218  0.65889940  0.09120634     0.03140
C1275       C  0.04017868  0.65754630  0.06913984    -0.10950
H1276       H  0.98749725  0.65407839  0.05960463     0.08740
H1277       H  0.01996478  0.66274436  0.11825784     0.06260
H1278       H  0.05507797  0.65705188  0.06095773     0.06110
C1279       C  0.06720415  0.99798082  0.35335544     0.03150
C1280       C  0.07866300  0.97932679  0.35637340    -0.13000
C1281       C  0.10069956  0.97991193  0.35755557     0.00650
C1282       C  0.11115635  0.99924326  0.35545611    -0.11530
C1283       C  0.09995947  0.01789619  0.35217690     0.03140
C1284       C  0.07794325  0.01727392  0.35159249    -0.10950
H1285       H  0.07043821  0.96441887  0.35782596     0.08740
H1286       H  0.12818265  0.99976737  0.35600719     0.06260
H1287       H  0.06916829  0.03173095  0.34953125     0.06110
C1288       C  0.06685507  0.99840211  0.66645223     0.03150
C1289       C  0.07856963  0.97974425  0.66506991    -0.13000
C1290       C  0.10063048  0.98039950  0.66626697     0.00650
C1291       C  0.11071750  0.99990631  0.66886912    -0.11530
C1292       C  0.09917372  0.01854594  0.67019032     0.03140
C1293       C  0.07722586  0.01778080  0.66890310    -0.10950
H1294       H  0.07048622  0.96486429  0.66282353     0.08740
H1295       H  0.12772242  0.00067126  0.66982969     0.06260
H1296       H  0.06821964  0.03219386  0.67000137     0.06110
C1297       C  0.35832558  0.04695815  0.01033719     0.03150
C1298       C  0.35923910  0.05811330  0.99124351    -0.13000
C1299       C  0.36154000  0.08008603  0.99122827     0.00650
C1300       C  0.36360934  0.09062282  0.01042618    -0.11530
C1301       C  0.36110342  0.08013464  0.02965884     0.03140
C1302       C  0.35869939  0.05808197  0.02950868    -0.10950
H1303       H  0.35776802  0.04966218  0.97652250     0.08740
H1304       H  0.36641900  0.10746996  0.01030601     0.06260
H1305       H  0.35685413  0.04950518  0.04409290     0.06110
C1306       C  0.68080783  0.03918432  0.01102138     0.03150
C1307       C  0.68054254  0.05029770  0.99190190    -0.13000
C1308       C  0.68027267  0.07241798  0.99186714     0.00650
C1309       C  0.67953602  0.08316094  0.01106884    -0.11530
C1310       C  0.68079131  0.07237223  0.03024020     0.03140
C1311       C  0.68117787  0.05025296  0.03014457    -0.10950
H1312       H  0.68076442  0.04174811  0.97716654     0.08740
H1313       H  0.67812480  0.10016672  0.01107403     0.06260
H1314       H  0.68185860  0.04165505  0.04485040     0.06110
C1315       C  0.52422593  0.84806903  0.55700089     0.03150
C1316       C  0.54322104  0.84848413  0.56837031    -0.13000
C1317       C  0.54308131  0.84870422  0.59042264     0.00650
C1318       C  0.52391691  0.84719968  0.60106239    -0.11530
C1319       C  0.50492483  0.84588367  0.58999542     0.03140
C1320       C  0.50508857  0.84670589  0.56795639    -0.10950
H1321       H  0.55809290  0.84854365  0.56014286     0.08740
H1322       H  0.52378326  0.84691387  0.61810533     0.06260
H1323       H  0.49036739  0.84611174  0.55934687     0.06110
C1324       C  0.51915829  0.15450914  0.55681474     0.03150
C1325       C  0.53793640  0.15637899  0.56838607    -0.13000
C1326       C  0.53781964  0.15495296  0.59039675     0.00650
C1327       C  0.51864570  0.15190681  0.60073493    -0.11530
C1328       C  0.49963554  0.15188236  0.58962412     0.03140
C1329       C  0.49991829  0.15305121  0.56759459    -0.10950
H1330       H  0.55260114  0.15934976  0.56030169     0.08740
H1331       H  0.51834246  0.15014117  0.61767532     0.06260
H1332       H  0.48523612  0.15292187  0.55890650     0.06110
C1333       C  0.56457994  0.49705803  0.84938351     0.03150
C1334       C  0.57610452  0.51603346  0.84884988    -0.13000
C1335       C  0.59808545  0.51573875  0.84675428     0.00650
C1336       C  0.60833637  0.49630646  0.84532395    -0.11530
C1337       C  0.59737025  0.47720387  0.84741249     0.03140
C1338       C  0.57538676  0.47774333  0.84955952    -0.10950
H1339       H  0.56793737  0.53086087  0.85037548     0.08740
H1340       H  0.62522878  0.49613636  0.84314399     0.06260
H1341       H  0.56658725  0.46325666  0.85157874     0.06110
C1342       C  0.56469776  0.49575226  0.17586536     0.03150
C1343       C  0.57638100  0.51466632  0.17664787    -0.13000
C1344       C  0.59843830  0.51437595  0.17617723     0.00650
C1345       C  0.60877911  0.49509092  0.17418069    -0.11530
C1346       C  0.59762990  0.47599290  0.17409299     0.03140
C1347       C  0.57551058  0.47642127  0.17477787    -0.10950
H1348       H  0.56831892  0.52961091  0.17792774     0.08740
H1349       H  0.62578183  0.49496868  0.17307175     0.06260
H1350       H  0.56675127  0.46177868  0.17447077     0.06110
C1351       C  0.86139328  0.54030299  0.51087054     0.03150
C1352       C  0.86104259  0.55149225  0.52994560    -0.13000
C1353       C  0.86125583  0.57359044  0.52994167     0.00650
C1354       C  0.86194419  0.58440093  0.51078151    -0.11530
C1355       C  0.86296379  0.57350779  0.49169213     0.03140
C1356       C  0.86216636  0.55141007  0.49174364    -0.10950
H1357       H  0.86079987  0.54301481  0.54473827     0.08740
H1358       H  0.86212691  0.60148230  0.51073678     0.06260
H1359       H  0.86269852  0.54287531  0.47700752     0.06110
C1360       C  0.16839854  0.54528832  0.51182218     0.03150
C1361       C  0.16859276  0.55634099  0.53102640    -0.13000
C1362       C  0.17022671  0.57844075  0.53125273     0.00650
C1363       C  0.17190527  0.58918080  0.51207091    -0.11530
C1364       C  0.17075641  0.57858051  0.49281580     0.03140
C1365       C  0.16919048  0.55653173  0.49277209    -0.10950
H1366       H  0.16735170  0.54768998  0.54564423     0.08740
H1367       H  0.17396286  0.60613631  0.51208503     0.06260
H1368       H  0.16827738  0.54807978  0.47800845     0.06110
C1369       C  0.66286434  0.98203072  0.00987430    -0.26300
C1370       C  0.68214810  0.97149189  0.01120394    -0.14370
C1371       C  0.70102805  0.98331107  0.01245269     0.36260
C1372       C  0.70005083  0.00538169  0.01234619    -0.25750
C1373       C  0.68075301  0.01591565  0.01104140    -0.14990
C1374       C  0.66188128  0.00408342  0.00977182     0.37340
N1375       N  0.64150714  0.01378601  0.00870482    -0.89240
H1376       H  0.64838939  0.97299599  0.00901356     0.18460
H1377       H  0.71451815  0.01442279  0.01323494     0.18450
N1378       N  0.72138252  0.97357631  0.01353272    -0.88260
H1379       H  0.63482663  0.00983937  0.99418838     0.35830
H1380       H  0.64248656  0.03018345  0.00917006     0.40920
H1381       H  0.72035011  0.95717980  0.01307408     0.40540
H1382       H  0.72806157  0.97751446  0.02805182     0.35430
C1383       C  0.34423474  0.98917059  0.01956736    -0.26300
C1384       C  0.36144821  0.97914236  0.01016107    -0.14370
C1385       C  0.37744851  0.99157393  0.00082308     0.36260
C1386       C  0.37542802  0.01352636  0.00066731    -0.25750
C1387       C  0.35827302  0.02359234  0.01009527    -0.14990
C1388       C  0.34225932  0.01118783  0.01946462     0.37340
N1389       N  0.32364631  0.02017820  0.02853559    -0.89240
H1390       H  0.33190903  0.97973332  0.02665686     0.18460
H1391       H  0.38781185  0.02292323  0.99361782     0.18450
N1392       N  0.39618178  0.98268753  0.99186671    -0.88260
H1393       H  0.31070516  0.01411820  0.02032395     0.35830
H1394       H  0.32308375  0.03643590  0.02634387     0.40920
H1395       H  0.39696921  0.96645685  0.99414427     0.40540
H1396       H  0.40904232  0.98892498  0.00006983     0.35430
C1397       C  0.00935475  0.00678832  0.65249550    -0.26300
C1398       C  0.99945676  0.99753506  0.66991755    -0.14370
C1399       C  0.01193704  0.98858285  0.68611599     0.36260
C1400       C  0.03381814  0.98835848  0.68392260    -0.25750
C1401       C  0.04367484  0.99762416  0.66654432    -0.14990
C1402       C  0.03128802  0.00693115  0.65053387     0.37340
N1403       N  0.04026742  0.01635799  0.63202661    -0.89240
H1404       H  0.99990202  0.01361423  0.64004341     0.18460
H1405       H  0.04331553  0.98153694  0.69635033     0.18450
N1406       N  0.00316105  0.98013915  0.70519844    -0.88260
H1407       H  0.03465604  0.00796509  0.61901805     0.35830
H1408       H  0.05658133  0.01485722  0.63172709     0.40920
H1409       H  0.98703938  0.98279572  0.70617745     0.40540
H1410       H  0.00973232  0.98852854  0.71776012     0.35430
C1411       C  0.01001993  0.00560291  0.33725280    -0.26300
C1412       C  0.99958707  0.99792644  0.35508989    -0.14370
C1413       C  0.01152612  0.99011797  0.37223948     0.36260
C1414       C  0.03348355  0.98976634  0.37078122    -0.25750
C1415       C  0.04393779  0.99745198  0.35295876    -0.14990
C1416       C  0.03199432  0.00520964  0.33577636     0.37340
N1417       N  0.04142731  0.01231691  0.31647839    -0.89240
H1418       H  0.00093466  0.01142258  0.32403563     0.18460
H1419       H  0.04254422  0.98397417  0.38402842     0.18450
N1420       N  0.00209963  0.98289614  0.39150066    -0.88260
H1421       H  0.03544955  0.00292694  0.30433780     0.35830
H1422       H  0.05761942  0.00987706  0.31637080     0.40920
H1423       H  0.98588135  0.98515801  0.39158347     0.40540
H1424       H  0.00797357  0.99230446  0.40367686     0.35430
C1425       C  0.00239271  0.34696827  0.99945526    -0.26300
C1426       C  0.01558431  0.33301023  0.98864232    -0.14370
C1427       C  0.02844998  0.31911589  0.00032876     0.36260
C1428       C  0.02793489  0.31967055  0.02245262    -0.25750
C1429       C  0.01460900  0.33353062  0.03321832    -0.14990
C1430       C  0.00177266  0.34740594  0.02144658     0.37340
N1431       N  0.98862409  0.36274993  0.03130021    -0.89240
H1432       H  0.99268592  0.35792214  0.99071969     0.18460
H1433       H  0.03784089  0.30906686  0.03139772     0.18450
N1434       N  0.04176827  0.30430775  0.98972918    -0.88260
H1435       H  0.99778314  0.37173792  0.04162426     0.35830
H1436       H  0.97688001  0.35503857  0.03977965     0.40920
H1437       H  0.03205974  0.29382614  0.98151048     0.40540
H1438       H  0.05027984  0.29534068  0.00058149     0.35430
C1439       C  0.03246987  0.64166977  0.00040270    -0.26300
C1440       C  0.02201099  0.65789353  0.98964165    -0.14370
C1441       C  0.01142059  0.67354147  0.00143486     0.36260
C1442       C  0.01105659  0.67205822  0.02343480    -0.25750
C1443       C  0.02148848  0.65584422  0.03420694    -0.14990
C1444       C  0.03216499  0.64023625  0.02244090     0.37340
N1445       N  0.04235228  0.62247009  0.03209134    -0.89240
H1446       H  0.04051107  0.62958301  0.99152277     0.18460
H1447       H  0.00299917  0.68414909  0.03230268     0.18450
N1448       N  0.00136047  0.69142468  0.99184769    -0.88260
H1449       H  0.03524374  0.60883612  0.02614254     0.35830
H1450       H  0.03980792  0.62198572  0.04826035     0.40920
H1451       H  0.00397362  0.69204303  0.97569715     0.40540
H1452       H  0.00850538  0.70498677  0.99791852     0.35430
C1453       C  0.50662174  0.48714194  0.83716926    -0.26300
C1454       C  0.49679830  0.49813162  0.85352452    -0.14370
C1455       C  0.50943875  0.50861348  0.86868985     0.36260
C1456       C  0.53140350  0.50820534  0.86673033    -0.25750
C1457       C  0.54122322  0.49738770  0.85022622    -0.14990
C1458       C  0.52854302  0.48682194  0.83513360     0.37340
N1459       N  0.53711840  0.47656735  0.81694595    -0.89240
H1460       H  0.49708428  0.47933022  0.82533592     0.18460
H1461       H  0.54094452  0.51607372  0.87851602     0.18450
N1462       N  0.50073447  0.51905645  0.88670373    -0.88260
H1463       H  0.53517793  0.46033132  0.81894863     0.35830
H1464       H  0.55311822  0.47959312  0.81508242     0.40920
H1465       H  0.48457998  0.51657673  0.88803122     0.40540
H1466       H  0.50323660  0.53523056  0.88482505     0.35430
C1467       C  0.53280911  0.86420467  0.49996471    -0.26300
C1468       C  0.52272818  0.84768317  0.48930070    -0.14370
C1469       C  0.51321842  0.83129834  0.50095914     0.36260
C1470       C  0.51408324  0.83171969  0.52293763    -0.25750
C1471       C  0.52422681  0.84821811  0.53368020    -0.14990
C1472       C  0.53350800  0.86476903  0.52194671     0.37340
N1473       N  0.54289853  0.88278435  0.53182686    -0.89240
H1474       H  0.53997325  0.87691734  0.49110331     0.18460
H1475       H  0.50687177  0.81898387  0.53172465     0.18450
N1476       N  0.50307144  0.81380155  0.49090106    -0.88260
H1477       H  0.55610477  0.87808544  0.54036201     0.35830
H1478       H  0.53198205  0.88938794  0.54211741     0.40920
H1479       H  0.51382292  0.80669263  0.48077036     0.40540
H1480       H  0.49041742  0.81936375  0.48201972     0.35430
C1481       C  0.87480438  0.48283660  0.52124823    -0.26300
C1482       C  0.85782901  0.47252702  0.51151867    -0.14370
C1483       C  0.84200567  0.48466544  0.50157794     0.36260
C1484       C  0.84386965  0.50667720  0.50132314    -0.25750
C1485       C  0.86094080  0.51696875  0.51093591    -0.14990
C1486       C  0.87672071  0.50481215  0.52092125     0.37340
N1487       N  0.89535912  0.51398632  0.52998530    -0.89240
H1488       H  0.88713137  0.47363287  0.52859481     0.18460
H1489       H  0.83159589  0.51589584  0.49391047     0.18450
N1490       N  0.82350125  0.47540263  0.49233740    -0.88260
H1491       H  0.89453057  0.51197023  0.54627224     0.35830
H1492       H  0.89653459  0.53009669  0.52700639     0.40920
H1493       H  0.82261633  0.45922074  0.49502831     0.40540
H1494       H  0.82433086  0.47769519  0.47608517     0.35430
C1495       C  0.18558321  0.51188795  0.50183316    -0.26300
C1496       C  0.16855301  0.52191680  0.51154658    -0.14370
C1497       C  0.15280170  0.50946490  0.52128237     0.36260
C1498       C  0.15482233  0.48747235  0.52140397    -0.25750
C1499       C  0.17189233  0.47749681  0.51171909    -0.14990
C1500       C  0.18756136  0.48993174  0.50187734     0.39500
N1501       N  0.20609810  0.48104583  0.49257830    -0.89240
H1502       H  0.19783726  0.52129482  0.49457786     0.18460
H1503       H  0.14265324  0.47801382  0.52872922     0.18450
N1504       N  0.13416688  0.51835700  0.53034897    -0.88260
H1505       H  0.20520084  0.48354791  0.47635686     0.35830
H1506       H  0.20713922  0.46484266  0.49501308     0.40920
H1507       H  0.13303889  0.53449982  0.52757215     0.40540
H1508       H  0.13500206  0.51613164  0.54661414     0.35430
C1509       C  0.50670040  0.48547353  0.18820186    -0.26300
C1510       C  0.49661787  0.49952305  0.17437392    -0.14370
C1511       C  0.50926471  0.51197083  0.16077792     0.36260
C1512       C  0.53119512  0.51036387  0.16163887    -0.25750
C1513       C  0.54123898  0.49650545  0.17558625    -0.14990
C1514       C  0.52875884  0.48385823  0.18891366     0.37340
N1515       N  0.53838125  0.46966359  0.20352387    -0.89240
H1516       H  0.49739859  0.47576321  0.19868669     0.18460
H1517       H  0.54051954  0.51988286  0.15099325     0.18450
N1518       N  0.50046792  0.52561486  0.14513382    -0.88260
H1519       H  0.53283149  0.45447551  0.20028655     0.35830
H1520       H  0.53347752  0.47373050  0.21864550     0.40920
H1521       H  0.49327009  0.53841768  0.15240380     0.40540
H1522       H  0.48940365  0.51722384  0.13630640     0.35430
C1523       C  0.53129764  0.14101900  0.49986517    -0.26300
C1524       C  0.51895295  0.15576256  0.48908840    -0.14370
C1525       C  0.50665374  0.17015464  0.50059540     0.36260
C1526       C  0.50707209  0.16951167  0.52269550    -0.25750
C1527       C  0.51954468  0.15481969  0.53349622    -0.14990
C1528       C  0.53159698  0.14024076  0.52181200     0.37340
N1529       N  0.54341255  0.12376557  0.53166747    -0.89240
H1530       H  0.54046073  0.12967369  0.49110232     0.18460
H1531       H  0.49774970  0.18062797  0.53156723     0.18450
N1532       N  0.49395784  0.18544182  0.48981029    -0.88260
H1533       H  0.53347715  0.11536115  0.54171249     0.35830
H1534       H  0.55571311  0.13030346  0.54040075     0.40920
H1535       H  0.50409306  0.19552206  0.48165858     0.40540
H1536       H  0.48577783  0.19475290  0.50056322     0.35430
C1537       C  0.16111223  0.37761204  0.45307190    -0.26300
C1538       C  0.17529484  0.38267502  0.43699399    -0.14370
C1539       C  0.18752267  0.40133768  0.43860219     0.36260
C1540       C  0.18544374  0.41411907  0.45646381    -0.25750
C1541       C  0.17180564  0.40860710  0.47288963    -0.14990
C1542       C  0.15902390  0.39048204  0.47085297     0.37340
N1543       N  0.14399072  0.38521701  0.48687484    -0.89240
H1544       H  0.15153116  0.36352160  0.45168741     0.18460
H1545       H  0.19535571  0.42796461  0.45796696     0.18450
N1546       N  0.20276064  0.40744712  0.42305550    -0.88260
H1547       H  0.13589541  0.37137725  0.48301890     0.35830
H1548       H  0.13283811  0.39725675  0.48727536     0.40920
H1549       H  0.20394052  0.39641349  0.41101212     0.40540
H1550       H  0.21748909  0.40775944  0.43039507     0.35430
C1551       C  0.08887152  0.32612262  0.11315930    -0.26300
C1552       C  0.08945621  0.34099049  0.12944529    -0.14370
C1553       C  0.07317682  0.35596928  0.13097038     0.36260
C1554       C  0.05638074  0.35528713  0.11674906    -0.25750
C1555       C  0.05516129  0.33972933  0.10108445    -0.14990
C1556       C  0.07182143  0.32512558  0.09918111     0.37340
N1557       N  0.07133419  0.30839487  0.08408682    -0.89240
H1558       H  0.10136631  0.31464872  0.11181568     0.18460
H1559       H  0.04377433  0.36660355  0.11837175     0.18450
N1560       N  0.07338971  0.37219059  0.14661211    -0.88260
H1561       H  0.07148620  0.31485522  0.06899689     0.35830
H1562       H  0.05745792  0.29976051  0.08608030     0.40920
H1563       H  0.08746830  0.38063049  0.14531020     0.40540
H1564       H  0.07275757  0.36522416  0.16146673     0.35430
C1565       C  0.10714929  0.05425065  0.36442267    -0.26300
C1566       C  0.11155798  0.03802751  0.35016304    -0.14370
C1567       C  0.12841265  0.04053184  0.33584140     0.36260
C1568       C  0.14121977  0.05842052  0.33719878    -0.25750
C1569       C  0.13731097  0.07428547  0.35199040    -0.14990
C1570       C  0.11984486  0.07232547  0.36545953     0.37340
N1571       N  0.11554939  0.08805255  0.38096506    -0.89240
H1572       H  0.09435758  0.05245705  0.37550564     0.18460
H1573       H  0.15426663  0.06000987  0.32639132     0.18450
N1574       N  0.13274133  0.02559897  0.31944578    -0.88260
H1575       H  0.11597825  0.08090243  0.39576935     0.35830
H1576       H  0.10030071  0.09360623  0.37841014     0.40920
H1577       H  0.12088333  0.01429819  0.31798269     0.40540
H1578       H  0.14670649  0.01785522  0.32331433     0.35430
C1579       C  0.46017581  0.13880998  0.39030769    -0.26300
C1580       C  0.44474051  0.15410250  0.39376870    -0.14370
C1581       C  0.44663273  0.16783601  0.41124476     0.36260
C1582       C  0.46422065  0.16613809  0.42444658    -0.25750
C1583       C  0.48008980  0.15142149  0.42044212    -0.14990
C1584       C  0.47770419  0.13713062  0.40360598     0.37340
N1585       N  0.49315729  0.12106179  0.40004781    -0.89240
H1586       H  0.45849953  0.12809151  0.37714416     0.18460
H1587       H  0.46603221  0.17718630  0.43731660     0.18450
N1588       N  0.43169767  0.18420602  0.41565114    -0.88260
H1589       H  0.48908971  0.11189514  0.38699283     0.35830
H1590       H  0.49300785  0.11101308  0.41307261     0.40920
H1591       H  0.41984522  0.18495882  0.40434518     0.40540
H1592       H  0.43966944  0.19861142  0.41479107     0.35430
C1593       C  0.34887652  0.11231007  0.04820218    -0.26300
C1594       C  0.35966853  0.09305120  0.04922014    -0.14370
C1595       C  0.36951199  0.08743007  0.06829441     0.36260
C1596       C  0.36877122  0.10125755  0.08555596    -0.25750
C1597       C  0.35872144  0.12096504  0.08417613    -0.14990
C1598       C  0.34862815  0.12635113  0.06511013     0.37340
N1599       N  0.33788219  0.14595925  0.06262859    -0.89240
H1600       H  0.34059378  0.11674604  0.03396806     0.18460
H1601       H  0.37676508  0.09669314  0.09987892     0.18450
N1602       N  0.38092716  0.06812629  0.07009314    -0.88260
H1603       H  0.32224369  0.14278915  0.05865820     0.35830
H1604       H  0.34478245  0.15409610  0.05008424     0.40920
H1605       H  0.37433601  0.05937162  0.08236544     0.40540
H1606       H  0.39644926  0.07174648  0.07419079     0.35430
C1607       C  0.43057299  0.44517634  0.15896056    -0.26300
C1608       C  0.42609828  0.46224641  0.17219247    -0.14370
C1609       C  0.40821797  0.46120369  0.18535349     0.36260
C1610       C  0.39457474  0.44385321  0.18399699    -0.25750
C1611       C  0.39860868  0.42709135  0.17030133    -0.14990
C1612       C  0.41699471  0.42760237  0.15782276     0.37340
N1613       N  0.42145457  0.41072109  0.14349691    -0.89240
H1614       H  0.44424235  0.44593135  0.14887040     0.18460
H1615       H  0.38077235  0.44331192  0.19391975     0.18450
N1616       N  0.40399788  0.47779514  0.20012570    -0.88260
H1617       H  0.43562339  0.41346245  0.13565089     0.35830
H1618       H  0.40964604  0.41062284  0.13202776     0.40920
H1619       H  0.41627756  0.47800560  0.21108317     0.40540
H1620       H  0.39021072  0.47470664  0.20850721     0.35430
C1621       C  0.91619838  0.06791759  0.36593926    -0.26300
C1622       C  0.90133272  0.06895605  0.34961558    -0.14370
C1623       C  0.90156043  0.05346890  0.33369415     0.36260
C1624       C  0.91599203  0.03699330  0.33486651    -0.25750
C1625       C  0.93017570  0.03532302  0.35173784    -0.14990
C1626       C  0.93039456  0.05115183  0.36745082     0.37340
N1627       N  0.94371553  0.05023268  0.38573722    -0.89240
H1628       H  0.91614406  0.07974652  0.37821951     0.18460
H1629       H  0.91581521  0.02503867  0.32270125     0.18450
N1630       N  0.88772852  0.05428045  0.31589980    -0.88260
H1631       H  0.95448778  0.06267073  0.38473214     0.35830
H1632       H  0.95231477  0.03633036  0.38653321     0.40920
H1633       H  0.88938926  0.06897071  0.30865707     0.40540
H1634       H  0.87225573  0.05250396  0.32100565     0.35430
C1635       C  0.87275064  0.39187966  0.43800143    -0.26300
C1636       C  0.85645823  0.37692183  0.43663270    -0.14370
C1637       C  0.84065115  0.37660826  0.45223456     0.36260
C1638       C  0.84243001  0.39020353  0.46941694    -0.25750
C1639       C  0.85922605  0.40448024  0.47136145    -0.14990
C1640       C  0.87454588  0.40550823  0.45528625     0.37340
N1641       N  0.89246925  0.41937325  0.45624741    -0.89240
H1642       H  0.88482641  0.39228468  0.42602103     0.18460
H1643       H  0.83052141  0.38953048  0.48156563     0.18450
N1644       N  0.82251625  0.36300429  0.45119041    -0.88260
H1645       H  0.90594754  0.41000709  0.45657278     0.35830
H1646       H  0.89278595  0.42814568  0.47008326     0.40920
H1647       H  0.82158753  0.35508883  0.43687443     0.40540
H1648       H  0.80917901  0.37256743  0.45156867     0.35430
C1649       C  0.94190829  0.33959385  0.11210054    -0.26300
C1650       C  0.94299323  0.32861222  0.13126522    -0.14370
C1651       C  0.96138378  0.31716129  0.13600813     0.36260
C1652       C  0.97836166  0.31746292  0.12200880    -0.25750
C1653       C  0.97767873  0.32924787  0.10330353    -0.14990
C1654       C  0.95905890  0.34018818  0.09825550     0.37340
N1655       N  0.95776355  0.35275109  0.07960256    -0.89240
H1656       H  0.92799388  0.34855302  0.10814860     0.18460
H1657       H  0.99233671  0.30858820  0.12599125     0.18450
N1658       N  0.96292454  0.30497767  0.15489426    -0.88260
H1659       H  0.95458452  0.36826696  0.08400972     0.35830
H1660       H  0.94508997  0.34724492  0.07061823     0.40920
H1661       H  0.97586588  0.31049503  0.16349154     0.40540
H1662       H  0.96581702  0.28933708  0.15073842     0.35430
C1663       C  0.59265506  0.14420985  0.41134691    -0.26300
C1664       C  0.59311868  0.15721947  0.39347767    -0.14370
C1665       C  0.57630651  0.17116776  0.38970031     0.36260
C1666       C  0.55897976  0.17104718  0.40327066    -0.25750
C1667       C  0.55799063  0.15727798  0.42052779    -0.14990
C1668       C  0.57515275  0.14389174  0.42479198     0.37340
N1669       N  0.57441740  0.12944720  0.44219309    -0.89240
H1670       H  0.60555035  0.13350625  0.41429091     0.18460
H1671       H  0.54597458  0.18160130  0.40021364     0.18450
N1672       N  0.57687760  0.18544987  0.37216325    -0.88260
H1673       H  0.58833224  0.12078790  0.44316874     0.35830
H1674       H  0.56233582  0.11862949  0.43922427     0.40920
H1675       H  0.58932930  0.19594906  0.37469115     0.40540
H1676       H  0.56318064  0.19448210  0.37151716     0.35430
C1677       C  0.61837611  0.42115118  0.16080806    -0.26300
C1678       C  0.63611658  0.42011601  0.17400787    -0.14370
C1679       C  0.64015834  0.43677106  0.18814883     0.36260
C1680       C  0.62690628  0.45435547  0.18822363    -0.25750
C1681       C  0.60971179  0.45593090  0.17438983    -0.14990
C1682       C  0.60526911  0.43901136  0.16063292     0.37340
N1683       N  0.58799796  0.44028290  0.14606964    -0.89240
H1684       H  0.61523416  0.40836821  0.14995904     0.18460
H1685       H  0.63010867  0.46707106  0.19914711     0.18450
N1686       N  0.65759516  0.43573712  0.20254734    -0.88260
H1687       H  0.58688099  0.42651647  0.13711445     0.35830
H1688       H  0.59124672  0.45253782  0.13557525     0.40920
H1689       H  0.65473415  0.42326065  0.21289008     0.40540
H1690       H  0.65851444  0.44939042  0.21169729     0.35430
C1691       C  0.66755401  0.07955504  0.06647604    -0.26300
C1692       C  0.68147244  0.08459884  0.05014079    -0.14370
C1693       C  0.69494833  0.10222840  0.05232085     0.36260
C1694       C  0.69321825  0.11517968  0.07006510    -0.25750
C1695       C  0.67878493  0.11062941  0.08604583    -0.14990
C1696       C  0.66601531  0.09241547  0.08442211     0.37340
N1697       N  0.65096768  0.08747705  0.10051139    -0.89240
H1698       H  0.65720756  0.06605874  0.06481146     0.18460
H1699       H  0.70332811  0.12888145  0.07149720     0.18450
N1700       N  0.71034874  0.10691679  0.03647173    -0.88260
H1701       H  0.64297623  0.07349292  0.09696935     0.35830
H1702       H  0.63971577  0.09943209  0.10054807     0.40920
H1703       H  0.72103539  0.09445850  0.03617227     0.40540
H1704       H  0.71892156  0.12044876  0.04038935     0.35430
C1705       C  0.37800002  0.88092552  0.06943665    -0.26300
C1706       C  0.36279058  0.88427990  0.08495368    -0.14370
C1707       C  0.34859167  0.90131326  0.08279800     0.36260
C1708       C  0.34978244  0.91418425  0.06489608    -0.25750
C1709       C  0.36453139  0.91032892  0.04901670    -0.14990
C1710       C  0.37924747  0.89392617  0.05166220     0.37340
N1711       N  0.39542063  0.89056853  0.03629035    -0.89240
H1712       H  0.38907528  0.86812014  0.07128804     0.18460
H1713       H  0.33845840  0.92675031  0.06295435     0.18450
N1714       N  0.33232905  0.90561969  0.09784960    -0.88260
H1715       H  0.40491382  0.87784607  0.04054824     0.35830
H1716       H  0.40509600  0.90391662  0.03623271     0.40920
H1717       H  0.33210864  0.89462758  0.11001303     0.40540
H1718       H  0.31788084  0.90404786  0.09011746     0.35430
C1719       C  0.46465023  0.86595801  0.39064551    -0.26300
C1720       C  0.44981956  0.84971599  0.39269695    -0.14370
C1721       C  0.45184513  0.83501090  0.40932606     0.36260
C1722       C  0.46900688  0.83666813  0.42307083    -0.25750
C1723       C  0.48424013  0.85248898  0.42057054    -0.14990
C1724       C  0.48165107  0.86774396  0.40452483     0.37340
N1725       N  0.49562445  0.88543147  0.40209836    -0.89240
H1726       H  0.46285561  0.87755472  0.37825577     0.18460
H1727       H  0.47106361  0.82478481  0.43514359     0.18450
N1728       N  0.43773365  0.81747476  0.41203178    -0.88260
H1729       H  0.50404211  0.88328245  0.38818388     0.35830
H1730       H  0.50645352  0.88650140  0.41441402     0.40920
H1731       H  0.42659339  0.81645907  0.40001699     0.40540
H1732       H  0.42959732  0.81978330  0.42608457     0.35430
C1733       C  0.14347649  0.94170659  0.37353105    -0.26300
C1734       C  0.14070369  0.92569295  0.35860852    -0.14370
C1735       C  0.12351441  0.92666767  0.34440537     0.36260
C1736       C  0.10989547  0.94394307  0.34527281    -0.25750
C1737       C  0.11319497  0.96038005  0.35964293    -0.14990
C1738       C  0.12975974  0.95891999  0.37438196     0.37340
N1739       N  0.13263599  0.97501011  0.39004072    -0.89240
H1740       H  0.15644882  0.94075049  0.38458028     0.18460
H1741       H  0.09725597  0.94505454  0.33386196     0.18450
N1742       N  0.11981639  0.91108050  0.32838401    -0.88260
H1743       H  0.14556501  0.97160387  0.39963007     0.35830
H1744       H  0.11940068  0.97480184  0.39974124     0.40920
H1745       H  0.13129675  0.89942926  0.32838253     0.40540
H1746       H  0.12097732  0.91861442  0.31380972     0.35430
C1747       C  0.41893744  0.57477919  0.15940177    -0.26300
C1748       C  0.40190773  0.57571957  0.17335922    -0.14370
C1749       C  0.39858567  0.55902124  0.18760707     0.36260
C1750       C  0.41196623  0.54153216  0.18714706    -0.25750
C1751       C  0.42847159  0.54010105  0.17259461    -0.14990
C1752       C  0.43193746  0.55699542  0.15839388     0.37340
N1753       N  0.44767482  0.55642446  0.14220127    -0.89240
H1754       H  0.42149865  0.58749470  0.14831986     0.18460
H1755       H  0.40932573  0.52868905  0.19807475     0.18450
N1756       N  0.38173532  0.55989600  0.20258439    -0.88260
H1757       H  0.43996469  0.55793302  0.12773836     0.35830
H1758       H  0.45520266  0.54191459  0.14158423     0.40920
H1759       H  0.38490096  0.57239321  0.21281948     0.40540
H1760       H  0.38132546  0.54622863  0.21175860     0.35430
C1761       C  0.18456806  0.60081135  0.43889561    -0.26300
C1762       C  0.17265552  0.61937274  0.43881516    -0.14370
C1763       C  0.15868735  0.62328687  0.45556104     0.36260
C1764       C  0.15761064  0.60914715  0.47231697    -0.25750
C1765       C  0.17049225  0.59122397  0.47314699    -0.14990
C1766       C  0.18380853  0.58684189  0.45603221     0.37340
N1767       N  0.19722179  0.56879171  0.45635874    -0.89240
H1768       H  0.19511817  0.59754810  0.42596605     0.18460
H1769       H  0.14687648  0.61245222  0.48508943     0.18450
N1770       N  0.14504751  0.64118704  0.45580572    -0.88260
H1771       H  0.21276996  0.57399651  0.45501724     0.35830
H1772       H  0.19369664  0.55960725  0.44316132     0.40920
H1773       H  0.13622153  0.64126555  0.44191916     0.40540
H1774       H  0.15412437  0.65489481  0.45651193     0.35430
C1775       C  0.07813402  0.64743192  0.13575214    -0.26300
C1776       C  0.09516704  0.66044834  0.13058295    -0.14370
C1777       C  0.09476176  0.67189755  0.11154927     0.36260
C1778       C  0.07682528  0.67076682  0.09852174    -0.25750
C1779       C  0.05944126  0.65824263  0.10406803    -0.14990
C1780       C  0.06054458  0.64577882  0.12251227     0.37340
N1781       N  0.04386254  0.63131929  0.12764976    -0.89240
H1782       H  0.07871862  0.63819136  0.15006998     0.18460
H1783       H  0.07613931  0.68022783  0.08436265     0.18450
N1784       N  0.11223953  0.68509759  0.10583820    -0.88260
H1785       H  0.04708088  0.62341460  0.14171484     0.35830
H1786       H  0.04328106  0.61988976  0.11583829     0.40920
H1787       H  0.11333449  0.69714968  0.11698310     0.40540
H1788       H  0.10949942  0.69234696  0.09132827     0.35430
C1789       C  0.08945577  0.32371607  0.90980017    -0.26300
C1790       C  0.08962203  0.33761863  0.89261839    -0.14370
C1791       C  0.07246322  0.35145124  0.88958247     0.36260
C1792       C  0.05508514  0.34993146  0.90290902    -0.25750
C1793       C  0.05440072  0.33535137  0.91951258    -0.14990
C1794       C  0.07193609  0.32229492  0.92321464     0.37340
N1795       N  0.07161511  0.30716834  0.94003168    -0.89240
H1796       H  0.10271036  0.31331310  0.91223024     0.18460
H1797       H  0.04192092  0.36040758  0.90028907     0.18450
N1798       N  0.07211192  0.36738981  0.87347173    -0.88260
H1799       H  0.08574572  0.29882994  0.94060486     0.35830
H1800       H  0.05978247  0.29618875  0.93667995     0.40920
H1801       H  0.08644933  0.36852863  0.86568075     0.40540
H1802       H  0.07019690  0.38193894  0.88090487     0.35430
C1803       C  0.41286647  0.42926401  0.83865484    -0.26300
C1804       C  0.39631336  0.42887753  0.85317213    -0.14370
C1805       C  0.39494301  0.44501215  0.86837485     0.36260
C1806       C  0.40981526  0.46126090  0.86849506    -0.25750
C1807       C  0.42599926  0.46213500  0.85352787    -0.14990
C1808       C  0.42750470  0.44581646  0.83844816     0.37340
N1809       N  0.44294380  0.44612988  0.82210719    -0.89240
H1810       H  0.41406508  0.41690001  0.82698209     0.18460
H1811       H  0.40847534  0.47361186  0.88017100     0.18450
N1812       N  0.37894094  0.44510482  0.88416684    -0.88260
H1813       H  0.45787832  0.44497788  0.82882870     0.35830
H1814       H  0.44181482  0.46040724  0.81400250     0.40920
H1815       H  0.37946472  0.43081146  0.89230584     0.40540
H1816       H  0.36429305  0.44653103  0.87687092     0.35430
C1817       C  0.37122634  0.10215533  0.93629215    -0.26300
C1818       C  0.35918817  0.12069595  0.93695931    -0.14370
C1819       C  0.34688095  0.12477656  0.95486647     0.36260
C1820       C  0.34737838  0.11084489  0.97186934    -0.25750
C1821       C  0.36015508  0.09284710  0.97169092    -0.14990
C1822       C  0.37192418  0.08830315  0.95354193     0.37340
N1823       N  0.38520684  0.07016872  0.95283693    -0.89240
H1824       H  0.38075194  0.09873501  0.92264048     0.18460
H1825       H  0.33778648  0.11428963  0.98548828     0.18450
N1826       N  0.33354496  0.14286662  0.95582598    -0.88260
H1827       H  0.40060423  0.07526268  0.95011099     0.35830
H1828       H  0.38049643  0.06091322  0.94005762     0.40920
H1829       H  0.33803442  0.15183359  0.96889279     0.40540
H1830       H  0.31811300  0.13769181  0.95817991     0.35430
C1831       C  0.19391207  0.38059956  0.57101532    -0.26300
C1832       C  0.17864302  0.38294057  0.58668791    -0.14370
C1833       C  0.16350222  0.39907667  0.58475676     0.36260
C1834       C  0.16372188  0.41217156  0.56691802    -0.25750
C1835       C  0.17851035  0.40925039  0.55089134    -0.14990
C1836       C  0.19415094  0.39370815  0.55325277     0.37340
N1837       N  0.21012802  0.39124014  0.53751417    -0.89240
H1838       H  0.20572120  0.36844973  0.57263779     0.18460
H1839       H  0.15166754  0.42403723  0.56500509     0.18450
N1840       N  0.14739036  0.40151857  0.60034639    -0.88260
H1841       H  0.22038461  0.37905663  0.54156491     0.35830
H1842       H  0.21906681  0.40509065  0.53727573     0.40920
H1843       H  0.13795406  0.38800260  0.59992844     0.40540
H1844       H  0.13761688  0.41418903  0.59660646     0.35430
C1845       C  0.44609929  0.13970475  0.61374150    -0.26300
C1846       C  0.44463000  0.15612339  0.62846766    -0.14370
C1847       C  0.46039865  0.17190003  0.62895148     0.36260
C1848       C  0.47780962  0.16996696  0.61577836    -0.25750
C1849       C  0.47981470  0.15308724  0.60168947    -0.14990
C1850       C  0.46360268  0.13776989  0.60050859     0.37340
N1851       N  0.46461330  0.11972040  0.58688719    -0.89240
H1852       H  0.43400147  0.12764219  0.61321479     0.18460
H1853       H  0.49001691  0.18192042  0.61652920     0.18450
N1854       N  0.45926664  0.19020311  0.64224848    -0.88260
H1855       H  0.46443235  0.10627302  0.59638307     0.35830
H1856       H  0.47870632  0.11917789  0.57861286     0.40920
H1857       H  0.44474018  0.19133824  0.64966552     0.40540
H1858       H  0.46011116  0.20347294  0.63253936     0.35430
C1859       C  0.13814120  0.06081371  0.68634612    -0.26300
C1860       C  0.13653919  0.07471222  0.66929004    -0.14370
C1861       C  0.12131700  0.07084363  0.65348205     0.36260
C1862       C  0.10844874  0.05302458  0.65487573    -0.25750
C1863       C  0.11046118  0.03882712  0.67163642    -0.14990
C1864       C  0.12515649  0.04306197  0.68787954     0.37340
N1865       N  0.12719230  0.02993524  0.70619764    -0.89240
H1866       H  0.14963347  0.06377732  0.69862593     0.18460
H1867       H  0.09746438  0.04968982  0.64222776     0.18450
N1868       N  0.11944956  0.08385530  0.63517663    -0.88260
H1869       H  0.14173875  0.02237867  0.70538043     0.35830
H1870       H  0.11556713  0.01831580  0.70679476     0.40920
H1871       H  0.13414915  0.08496110  0.62794497     0.40540
H1872       H  0.11459490  0.09883922  0.63973380     0.35430
C1873       C  0.64126793  0.55402750  0.19024163    -0.26300
C1874       C  0.63806881  0.56962015  0.17495210    -0.14370
C1875       C  0.62080189  0.56754039  0.16095436     0.36260
C1876       C  0.60760117  0.54986827  0.16230074    -0.25750
C1877       C  0.61105068  0.53409898  0.17737065    -0.14990
C1878       C  0.62784746  0.53657527  0.19192027     0.37340
N1879       N  0.63151144  0.52208507  0.20891053    -0.89240
H1880       H  0.65422698  0.55555309  0.20125235     0.18460
H1881       H  0.59497338  0.54806127  0.15095282     0.18450
N1882       N  0.61690651  0.58237458  0.14444711    -0.88260
H1883       H  0.64514500  0.51362447  0.20547703     0.35830
H1884       H  0.61919139  0.51135776  0.21070359     0.40920
H1885       H  0.63060534  0.58420347  0.13559170     0.40540
H1886       H  0.61281162  0.59679996  0.15107859     0.35430
C1887       C  0.87886870  0.61517141  0.45203874    -0.26300
C1888       C  0.86261571  0.61338304  0.43723229    -0.14370
C1889       C  0.84751037  0.59706461  0.43937782     0.36260
C1890       C  0.84880728  0.58340436  0.45667718    -0.25750
C1891       C  0.86467328  0.58567105  0.47188925    -0.14990
C1892       C  0.88045666  0.60124442  0.46901479     0.37340
N1893       N  0.89827915  0.60339068  0.48287856    -0.89240
H1894       H  0.89069999  0.62737134  0.45020601     0.18460
H1895       H  0.83670339  0.57153046  0.45878156     0.18450
N1896       N  0.83024065  0.59432422  0.42495899    -0.88260
H1897       H  0.91183187  0.60180316  0.47376678     0.35830
H1898       H  0.89896698  0.59110604  0.49374621     0.40920
H1899       H  0.83023911  0.60570670  0.41314864     0.40540
H1900       H  0.81634020  0.59652401  0.43338827     0.35430
C1901       C  0.94751567  0.67056498  0.11354668    -0.26300
C1902       C  0.94738089  0.65682706  0.13084342    -0.14370
C1903       C  0.96417745  0.64259821  0.13355206     0.36260
C1904       C  0.98085191  0.64275859  0.11934681    -0.25750
C1905       C  0.98159726  0.65715532  0.10256464    -0.14990
C1906       C  0.96453207  0.67110431  0.09956728     0.37340
N1907       N  0.96447919  0.68666853  0.08326231    -0.89240
H1908       H  0.93462275  0.68145443  0.11130096     0.18460
H1909       H  0.99371074  0.63185561  0.12177810     0.18450
N1910       N  0.96460773  0.62755913  0.15034706    -0.88260
H1911       H  0.96429287  0.67912000  0.06869551     0.35830
H1912       H  0.97819080  0.69570672  0.08452308     0.40920
H1913       H  0.95079283  0.61861422  0.14976655     0.40540
H1914       H  0.96526028  0.63558168  0.16465547     0.35430
C1915       C  0.90267553  0.93678423  0.37089865    -0.26300
C1916       C  0.90518632  0.92219346  0.35459513    -0.14370
C1917       C  0.92178183  0.92487166  0.34004126     0.36260
C1918       C  0.93490420  0.94256052  0.34179516    -0.25750
C1919       C  0.93187610  0.95757497  0.35766068    -0.14990
C1920       C  0.91600649  0.95420851  0.37287208     0.37340
N1921       N  0.91322517  0.96779822  0.39071818    -0.89240
H1922       H  0.89032825  0.93447935  0.38239486     0.18460
H1923       H  0.94692487  0.94513706  0.33001873     0.18450
N1924       N  0.92506456  0.91086576  0.32261033    -0.88260
H1925       H  0.89914783  0.97597646  0.38859850     0.35830
H1926       H  0.92533081  0.97885468  0.39210340     0.40920
H1927       H  0.91363817  0.89908043  0.32176688     0.40540
H1928       H  0.93951781  0.90343260  0.32493578     0.35430
C1929       C  0.58162425  0.82872880  0.39210582    -0.26300
C1930       C  0.59722102  0.84416131  0.39479388    -0.14370
C1931       C  0.59513799  0.85904020  0.41121789     0.36260
C1932       C  0.57740872  0.85839800  0.42414727    -0.25750
C1933       C  0.56159797  0.84323965  0.42114145    -0.14990
C1934       C  0.56403255  0.82784549  0.40521214     0.37340
N1935       N  0.54928694  0.81090129  0.40209210    -0.89240
H1936       H  0.58319330  0.81709588  0.37974769     0.18460
H1937       H  0.57553785  0.87040205  0.43610192     0.18450
N1938       N  0.60999826  0.87574611  0.41439815    -0.88260
H1939       H  0.54140026  0.81362494  0.38790521     0.35830
H1940       H  0.53808557  0.81017497  0.41400822     0.40920
H1941       H  0.61188407  0.88394459  0.40026895     0.40540
H1942       H  0.62437035  0.86931080  0.41895039     0.35430
C1943       C  0.66272927  0.88364097  0.07793259    -0.26300
C1944       C  0.68194294  0.87631755  0.08587152    -0.14370
C1945       C  0.70096011  0.88295645  0.07642740     0.36260
C1946       C  0.70017199  0.89636041  0.05893393    -0.25750
C1947       C  0.68094190  0.90330312  0.05070824    -0.14990
C1948       C  0.66193715  0.89688933  0.06032736     0.37340
N1949       N  0.64164868  0.90327063  0.05261976    -0.89240
H1950       H  0.64815722  0.87863296  0.08521961     0.18460
H1951       H  0.71471634  0.90106702  0.05140156     0.18450
N1952       N  0.72124928  0.87636781  0.08395064    -0.88260
H1953       H  0.63383516  0.88976756  0.04727999     0.35830
H1954       H  0.64284118  0.91345699  0.03980103     0.40920
H1955       H  0.72006722  0.86654707  0.09704655     0.40540
H1956       H  0.72934201  0.88983745  0.08894486     0.35430
C1957       C  0.18216869  0.59977625  0.58622767    -0.26300
C1958       C  0.17142731  0.61903481  0.58554891    -0.14370
C1959       C  0.15875723  0.62384159  0.56800889     0.36260
C1960       C  0.15778410  0.60968484  0.55114778    -0.25750
C1961       C  0.16966061  0.59102836  0.55103328    -0.14990
C1962       C  0.18177229  0.58586335  0.56898217     0.37340
N1963       N  0.19427376  0.56706435  0.56936791    -0.89240
H1964       H  0.19175868  0.59608466  0.59983834     0.18460
H1965       H  0.14794119  0.61346686  0.53774267     0.18450
N1966       N  0.14689042  0.64306364  0.56737611    -0.88260
H1967       H  0.20212991  0.56559623  0.58375833     0.35830
H1968       H  0.20585122  0.56862540  0.55784256     0.40920
H1969       H  0.13569780  0.64231565  0.57934893     0.40540
H1970       H  0.13857397  0.64433240  0.55322401     0.35430
C1971       C  0.46411409  0.83036366  0.63056341    -0.26300
C1972       C  0.44963182  0.84680872  0.62843503    -0.14370
C1973       C  0.45266466  0.86201806  0.61243239     0.36260
C1974       C  0.47026865  0.86069937  0.59938883    -0.25750
C1975       C  0.48500504  0.84451398  0.60185515    -0.14990
C1976       C  0.48154095  0.82879562  0.61731441     0.37340
N1977       N  0.49505738  0.81086232  0.61980587    -0.89240
H1978       H  0.46177619  0.81847278  0.64257743     0.18460
H1979       H  0.47292976  0.87293597  0.58779467     0.18450
N1980       N  0.43894880  0.87966470  0.60982007    -0.88260
H1981       H  0.50318516  0.81261542  0.63401647     0.35830
H1982       H  0.50612631  0.80981942  0.60779615     0.40920
H1983       H  0.43771284  0.88754807  0.62418172     0.40540
H1984       H  0.42413478  0.87423030  0.60523151     0.35430
C1985       C  0.13151749  0.96167090  0.65167239    -0.26300
C1986       C  0.11361971  0.96109040  0.66455974    -0.14370
C1987       C  0.10940333  0.94281472  0.67655385     0.36260
C1988       C  0.12341982  0.92576140  0.67565165    -0.25750
C1989       C  0.14185324  0.92696274  0.66366960    -0.14990
C1990       C  0.14575191  0.94490338  0.65122265     0.37340
N1991       N  0.16409828  0.94599467  0.63811309    -0.89240
H1992       H  0.13456342  0.97546160  0.64209393     0.18460
H1993       H  0.12047875  0.91186245  0.68510640     0.18450
N1994       N  0.09145798  0.94192662  0.69020707    -0.88260
H1995       H  0.16472469  0.96036376  0.63009379     0.35830
H1996       H  0.16265981  0.93424943  0.62668243     0.40920
H1997       H  0.09360090  0.95330870  0.70189641     0.40540
H1998       H  0.09065051  0.92736725  0.69785823     0.35430
C1999       C  0.37916986  0.88211350  0.95020259    -0.26300
C2000       C  0.36238326  0.88337493  0.93596339    -0.14370
C2001       C  0.34679246  0.89897730  0.93879934     0.36260
C2002       C  0.34807806  0.91237097  0.95629074    -0.25750
C2003       C  0.36454668  0.91064553  0.97091043    -0.14990
C2004       C  0.38071449  0.89577923  0.96735560     0.37340
N2005       N  0.39915779  0.89443185  0.98041549    -0.89240
H2006       H  0.39143655  0.87056713  0.94776699     0.18460
H2007       H  0.33560377  0.92362626  0.95897009     0.18450
N2008       N  0.32889564  0.90099446  0.92508680    -0.88260
H2009       H  0.39822737  0.88040281  0.98897540     0.35830
H2010       H  0.40017589  0.90686790  0.99108770     0.40920
H2011       H  0.32868862  0.88953384  0.91335669     0.40540
H2012       H  0.33003748  0.91560318  0.91758437     0.35430
C2013       C  0.40578730  0.56400982  0.86942689    -0.26300
C2014       C  0.40331216  0.57519681  0.85060835    -0.14370
C2015       C  0.41472294  0.56903860  0.83257911     0.36260
C2016       C  0.42798373  0.55147595  0.83379738    -0.25750
C2017       C  0.43000333  0.53994079  0.85249129    -0.14990
C2018       C  0.41911471  0.54656632  0.87069582     0.37340
N2019       N  0.42090485  0.53585317  0.89056750    -0.89240
H2020       H  0.39715693  0.56881928  0.88327752     0.18460
H2021       H  0.43618774  0.54632039  0.81981662     0.18450
N2022       N  0.41293976  0.57982475  0.81276320    -0.88260
H2023       H  0.42704196  0.54661265  0.90142973     0.35830
H2024       H  0.43163963  0.52349296  0.88995062     0.40920
H2025       H  0.40272273  0.59260376  0.81360059     0.40540
H2026       H  0.40637151  0.56927049  0.80194871     0.35430
C2027       C  0.09387198  0.67318021  0.90849430    -0.26300
C2028       C  0.09543962  0.65791627  0.89265194    -0.14370
C2029       C  0.08001247  0.64192953  0.89126135     0.36260
C2030       C  0.06322045  0.64178313  0.90535998    -0.25750
C2031       C  0.06110379  0.65749799  0.92075346    -0.14990
C2032       C  0.07676051  0.67334458  0.92233676     0.37340
N2033       N  0.07518312  0.69039309  0.93697305    -0.89240
H2034       H  0.10567291  0.68548932  0.90965389     0.18460
H2035       H  0.05139062  0.62951749  0.90397055     0.18450
N2036       N  0.08114296  0.62546479  0.87592245    -0.88260
H2037       H  0.07586857  0.68439841  0.95223480     0.35830
H2038       H  0.06072181  0.69784250  0.93475076     0.40920
H2039       H  0.09563089  0.61791124  0.87751379     0.40540
H2040       H  0.08021438  0.63212395  0.86093725     0.35430
C2041       C  0.57681917  0.16749114  0.63399278    -0.26300
C2042       C  0.59416629  0.15524374  0.62818425    -0.14370
C2043       C  0.59357936  0.14438151  0.60880464     0.36260
C2044       C  0.57532509  0.14499547  0.59635506    -0.25750
C2045       C  0.55761967  0.15642470  0.60275420    -0.14990
C2046       C  0.55877675  0.16840731  0.62140029     0.37340
N2047       N  0.54177739  0.18180416  0.62749140    -0.89240
H2048       H  0.57721935  0.17654449  0.64841813     0.18460
H2049       H  0.57476805  0.13585755  0.58197906     0.18450
N2050       N  0.61108676  0.13210176  0.60195941    -0.88260
H2051       H  0.54752384  0.19720672  0.62861935     0.35830
H2052       H  0.53672780  0.17714494  0.64242640     0.40920
H2053       H  0.61601719  0.13800894  0.58743429     0.40540
H2054       H  0.60596813  0.11659444  0.59971812     0.35430
C2055       C  0.61622232  0.42073294  0.83823370    -0.26300
C2056       C  0.63555746  0.42107301  0.84892826    -0.14370
C2057       C  0.64154387  0.43926647  0.86017500     0.36260
C2058       C  0.62838690  0.45691208  0.85997311    -0.25750
C2059       C  0.60950728  0.45713625  0.84839287    -0.14990
C2060       C  0.60328240  0.43869875  0.83749046     0.37340
N2061       N  0.58431094  0.43843579  0.82515842    -0.89240
H2062       H  0.61163960  0.40668116  0.82968720     0.18460
H2063       H  0.63299980  0.47069724  0.86892250     0.18450
N2064       N  0.66086977  0.43971747  0.87196495    -0.88260
H2065       H  0.58202158  0.42367346  0.81822201     0.35830
H2066       H  0.58621282  0.44921789  0.81288046     0.40920
H2067       H  0.65954906  0.42866483  0.88407736     0.40540
H2068       H  0.66308084  0.45438336  0.87913135     0.35430
C2069       C  0.69283750  0.11516239  0.95210447    -0.26300
C2070       C  0.67778798  0.11124004  0.93644988    -0.14370
C2071       C  0.66448149  0.09343388  0.93822669     0.36260
C2072       C  0.66615559  0.08032192  0.95601131    -0.25750
C2073       C  0.68073165  0.08474784  0.97202714    -0.14990
C2074       C  0.69468856  0.10196285  0.96967956     0.37340
N2075       N  0.71068510  0.10598330  0.98521183    -0.89240
H2076       H  0.70333111  0.12855210  0.95053763     0.18460
H2077       H  0.65544780  0.06713641  0.95782310     0.18450
N2078       N  0.64879349  0.08918212  0.92246375    -0.88260
H2079       H  0.71957293  0.11927201  0.98121081     0.35830
H2080       H  0.72096848  0.09318252  0.98515532     0.40920
H2081       H  0.63797277  0.10152652  0.92278568     0.40540
H2082       H  0.64042765  0.07545211  0.92609448     0.35430
C2083       C  0.95502587  0.34918654  0.89166211    -0.26300
C2084       C  0.94017536  0.33304555  0.89408340    -0.14370
C2085       C  0.94295161  0.31798436  0.91019139     0.36260
C2086       C  0.96107776  0.31870718  0.92277419    -0.25750
C2087       C  0.97643851  0.33435923  0.91974436    -0.14990
C2088       C  0.97287624  0.35023009  0.90446532     0.37340
N2089       N  0.98665504  0.36798681  0.90205171    -0.89240
H2090       H  0.95271628  0.36111586  0.87968218     0.18460
H2091       H  0.96348142  0.30661944  0.93456531     0.18450
N2092       N  0.92806838  0.30135063  0.91354198    -0.88260
H2093       H  0.00123837  0.36299604  0.89657782     0.35830
H2094       H  0.98863835  0.37518669  0.91669939     0.40920
H2095       H  0.92637971  0.29289099  0.89954201     0.40540
H2096       H  0.91358371  0.30804388  0.91730838     0.35430
C2097       C  0.86820498  0.39371170  0.58497614    -0.26300
C2098       C  0.85703290  0.37456333  0.58388660    -0.14370
C2099       C  0.84583059  0.36975691  0.56530169     0.36260
C2100       C  0.84635485  0.38373339  0.54830236    -0.25750
C2101       C  0.85821315  0.40245375  0.54900515    -0.14990
C2102       C  0.86904169  0.40754793  0.56772365     0.37340
N2103       N  0.88154491  0.42629772  0.56910671    -0.89240
H2104       H  0.87697991  0.39772704  0.59903535     0.18460
H2105       H  0.83739302  0.37976740  0.53432692     0.18450
N2106       N  0.83356633  0.35087726  0.56356933    -0.88260
H2107       H  0.89699399  0.42195183  0.57260606     0.35830
H2108       H  0.87590548  0.43529927  0.58163075     0.40920
H2109       H  0.83921103  0.34223672  0.55078629     0.40540
H2110       H  0.81802434  0.35507213  0.56032433     0.35430
C2111       C  0.89798749  0.05187754  0.65523806    -0.26300
C2112       C  0.90270296  0.06923974  0.66800179    -0.14370
C2113       C  0.92141659  0.06933039  0.68001382     0.36260
C2114       C  0.93445705  0.05148304  0.67978425    -0.25750
C2115       C  0.92936426  0.03381426  0.66749120    -0.14990
C2116       C  0.91127912  0.03439834  0.65458188     0.37340
N2117       N  0.90643098  0.01733990  0.64062043    -0.89240
H2118       H  0.88387543  0.05189198  0.64563783     0.18460
H2119       H  0.94831353  0.05111807  0.68972158     0.18450
N2120       N  0.92653744  0.08694861  0.69327368    -0.88260
H2121       H  0.90578126  0.02330178  0.62531159     0.35830
H2122       H  0.89149993  0.01156934  0.64443372     0.40920
H2123       H  0.93098726  0.09939446  0.68349275     0.40540
H2124       H  0.93973461  0.08361051  0.70250861     0.35430
C2125       C  0.84872486  0.59789674  0.58324337    -0.26300
C2126       C  0.86523842  0.61247311  0.58509536    -0.14370
C2127       C  0.88103606  0.61316039  0.56952493     0.36260
C2128       C  0.87943169  0.59980768  0.55214758    -0.25750
C2129       C  0.86243306  0.58582805  0.54972041    -0.14990
C2130       C  0.84687801  0.58477527  0.56560315     0.37340
N2131       N  0.82839050  0.57178697  0.56388236    -0.89240
H2132       H  0.83652563  0.59748269  0.59510048     0.18460
H2133       H  0.89157638  0.60048326  0.54023673     0.18450
N2134       N  0.89912450  0.62675621  0.57095101    -0.88260
H2135       H  0.82943469  0.56004207  0.57535818     0.35830
H2136       H  0.82723646  0.56435790  0.54932173     0.40920
H2137       H  0.89984342  0.63477714  0.58523364     0.40540
H2138       H  0.89788734  0.63802632  0.55902486     0.35430
C2139       C  0.93508287  0.94184371  0.65677723    -0.26300
C2140       C  0.93268173  0.95595054  0.67350133    -0.14370
C2141       C  0.91776797  0.95173805  0.68927608     0.36260
C2142       C  0.90482143  0.93392321  0.68746987    -0.25750
C2143       C  0.90650015  0.92024342  0.67024802    -0.14990
C2144       C  0.92187232  0.92427574  0.65459417     0.37340
N2145       N  0.92386734  0.91185275  0.63578293    -0.89240
H2146       H  0.94638017  0.94529722  0.64451122     0.18460
H2147       H  0.89316871  0.93078165  0.69947790     0.18450
N2148       N  0.91566035  0.96577735  0.70686345    -0.88260
H2149       H  0.92156069  0.92189359  0.62294801     0.35830
H2150       H  0.91207981  0.90051868  0.63451354     0.40920
H2151       H  0.92975497  0.96534541  0.71534986     0.40540
H2152       H  0.90386993  0.96049375  0.71701856     0.35430
C2153       C  0.62358549  0.56867432  0.83350789    -0.26300
C2154       C  0.64076540  0.56862265  0.84742905    -0.14370
C2155       C  0.64272810  0.55200497  0.86206760     0.36260
C2156       C  0.62791219  0.53571771  0.86214158    -0.25750
C2157       C  0.61118552  0.53519031  0.84764632    -0.14990
C2158       C  0.60897091  0.55205683  0.83324485     0.37340
N2159       N  0.59278975  0.55229877  0.81754162    -0.89240
H2160       H  0.62186269  0.58144100  0.82232302     0.18460
H2161       H  0.62976354  0.52300844  0.87338131     0.18450
N2162       N  0.65929603  0.55142097  0.87736218    -0.88260
H2163       H  0.57818860  0.55315085  0.82491310     0.35830
H2164       H  0.59355588  0.53832840  0.80890589     0.40920
H2165       H  0.65912541  0.56546961  0.88591002     0.40540
H2166       H  0.67366961  0.55012030  0.86961426     0.35430
C2167       C  0.96284703  0.64148685  0.89111547    -0.26300
C2168       C  0.94816001  0.65773324  0.89320868    -0.14370
C2169       C  0.95067276  0.67263021  0.90962431     0.36260
C2170       C  0.96810927  0.67106885  0.92312781    -0.25750
C2171       C  0.98314336  0.65515182  0.92062103    -0.14990
C2172       C  0.97998147  0.63964951  0.90485881     0.37340
N2173       N  0.99367169  0.62182384  0.90236008    -0.89240
H2174       H  0.96078629  0.62983176  0.87882010     0.18460
H2175       H  0.97043061  0.68298370  0.93512115     0.18450
N2176       N  0.93647469  0.68994304  0.91263923    -0.88260
H2177       H  0.98447518  0.60822650  0.90389372     0.35830
H2178       H  0.00472022  0.62093249  0.91447082     0.40920
H2179       H  0.92453947  0.69012802  0.90138062     0.40540
H2180       H  0.94503008  0.70386934  0.91048733     0.35430
C2181       C  0.58307800  0.86172474  0.63279815    -0.26300
C2182       C  0.59767815  0.84551928  0.62996404    -0.14370
C2183       C  0.59522546  0.83145255  0.61284392     0.36260
C2184       C  0.57783715  0.83363967  0.59946253    -0.25750
C2185       C  0.56286017  0.84945708  0.60270879    -0.14990
C2186       C  0.56596221  0.86415460  0.61919835     0.37340
N2187       N  0.55249616  0.88201638  0.62229712    -0.89240
H2188       H  0.58521033  0.87288028  0.64553568     0.18460
H2189       H  0.57547300  0.82222149  0.58700583     0.18450
N2190       N  0.60914776  0.81405098  0.60922352    -0.88260
H2191       H  0.54392532  0.87946071  0.63606567     0.35830
H2192       H  0.54183544  0.88393401  0.60995223     0.40920
H2193       H  0.62046098  0.81255271  0.62100811     0.40540
H2194       H  0.61708032  0.81694172  0.59514074     0.35430
C2195       C  0.66371979  0.87566373  0.95071186    -0.26300
C2196       C  0.68177239  0.87524098  0.93816268    -0.14370
C2197       C  0.69874783  0.88898247  0.94278441     0.36260
C2198       C  0.69724746  0.90258226  0.96006237    -0.25750
C2199       C  0.67937394  0.90266108  0.97290594    -0.14990
C2200       C  0.66212824  0.88939879  0.96784084     0.37340
N2201       N  0.64284311  0.88941888  0.97961817    -0.89240
H2202       H  0.65060594  0.86533367  0.94702455     0.18460
H2203       H  0.71051745  0.91261686  0.96398839     0.18450
N2204       N  0.71790696  0.88918435  0.93082200    -0.88260
H2205       H  0.63075223  0.89362945  0.96928143     0.35830
H2206       H  0.64293398  0.90092248  0.99131646     0.40920
H2207       H  0.71759652  0.87820179  0.91864639     0.40540
H2208       H  0.73008712  0.88460555  0.94089223     0.35430
loop_ 
_geom_bond_atom_site_label_1 
_geom_bond_atom_site_label_2 
_geom_bond_distance 
_geom_bond_site_symmetry_2 
_ccdc_geom_bond_type 
N1            N2   1.323       .  A
N1            C5   1.344       .  A
N1           Cu9   2.067       .  S
N2            C3   1.346       .  A
N2           Cu8   2.078       .  S
C3            C4   1.383       .  A
C3            H6   1.082       .  S
C4            C5   1.380       .  A
C4           C38   1.466       .  S
C5            H7   1.082       .  S
Cu8          N11   2.077       .  S
Cu9          N19   2.067       .  S
Cu10         N12   2.075       .  S
Cu10         N18   2.075       .  S
N11          N12   1.323       .  A
N11          C15   1.345       .  A
N12          C13   1.346       .  A
C13          C14   1.382       .  A
C13          H16   1.082       .  S
C14          C15   1.382       .  A
C14          C76   1.468       .  S
C15          H17   1.082       .  S
N18          N19   1.322       .  A
N18          C22   1.345       .  A
N19          C20   1.344       .  A
C20          C21   1.381       .  A
C20          H23   1.082       .  S
C21          C22   1.382       .  A
C21        C2196   1.472       .  S
C22          H24   1.082       .  S
N25          N26   1.322       .  A
N25          C29   1.343       .  A
N25         Cu33   2.062       .  S
N26          C27   1.346       .  A
N26         Cu32   2.077       .  S
C27          C28   1.383       .  A
C27          H30   1.082       .  S
C28          C29   1.379       .  A
C28         C110   1.465       .  S
C29          H31   1.082       .  S
Cu32         N35   2.077       .  S
Cu33         N43   2.062       .  S
Cu34         N36   2.071       .  S
Cu34         N42   2.071       .  S
N35          N36   1.323       .  A
N35          C39   1.345       .  A
N36          C37   1.345       .  A
C37          C38   1.381       .  A
C37          H40   1.082       .  S
C38          C39   1.382       .  A
C39          H41   1.082       .  S
N42          N43   1.321       .  A
N42          C46   1.344       .  A
N43          C44   1.344       .  A
C44          C45   1.381       .  A
C44          H47   1.082       .  S
C45          C46   1.383       .  A
C45        C2182   1.473       .  S
C46          H48   1.082       .  S
N49          N50   1.323       .  A
N49          C53   1.345       .  A
N49         Cu57   2.076       .  S
N50          C51   1.346       .  A
N50         Cu56   2.075       .  S
C51          C52   1.383       .  A
C51          H54   1.082       .  S
C52          C53   1.383       .  A
C52          C86   1.470       .  S
C53          H55   1.082       .  S
Cu56         N59   2.074       .  S
Cu57         N67   2.076       .  S
Cu58         N60   2.076       .  S
Cu58         N66   2.077       .  S
N59          N60   1.323       .  A
N59          C63   1.344       .  A
N60          C61   1.347       .  A
C61          C62   1.383       .  A
C61          H64   1.082       .  S
C62          C63   1.381       .  A
C62         C124   1.468       .  S
C63          H65   1.082       .  S
N66          N67   1.322       .  A
N66          C70   1.345       .  A
N67          C68   1.346       .  A
C68          C69   1.383       .  A
C68          H71   1.082       .  S
C69          C70   1.383       .  A
C69        C2168   1.478       .  S
C70          H72   1.082       .  S
N73          N74   1.322       .  A
N73          C77   1.345       .  A
N73         Cu81   2.071       .  S
N74          C75   1.346       .  A
N74         Cu80   2.076       .  S
C75          C76   1.383       .  A
C75          H78   1.082       .  S
C76          C77   1.381       .  A
C77          H79   1.082       .  S
Cu80         N83   2.076       .  S
Cu81         N91   2.071       .  S
Cu82         N84   2.081       .  S
Cu82         N90   2.081       .  S
N83          N84   1.323       .  A
N83          C87   1.345       .  A
N84          C85   1.347       .  A
C85          C86   1.383       .  A
C85          H88   1.082       .  S
C86          C87   1.382       .  A
C87          H89   1.082       .  S
N90          N91   1.322       .  A
N90          C94   1.346       .  A
N91          C92   1.345       .  A
C92          C93   1.382       .  A
C92          H95   1.082       .  S
C93          C94   1.386       .  A
C93        C2154   1.479       .  S
C94          H96   1.081       .  S
N97          N98   1.323       .  A
N97         C101   1.342       .  A
N97        Cu105   2.060       .  S
N98          C99   1.347       .  A
N98        Cu104   2.080       .  S
C99         C100   1.384       .  A
C99         H102   1.082       .  S
C100        C101   1.378       .  A
C100        C134   1.465       .  S
C101        H103   1.082       .  S
Cu104       N107   2.079       .  S
Cu105       N115   2.059       .  S
Cu106       N108   2.065       .  S
Cu106       N114   2.065       .  S
N107        N108   1.323       .  A
N107        C111   1.345       .  A
N108        C109   1.344       .  A
C109        C110   1.379       .  A
C109        H112   1.082       .  S
C110        C111   1.382       .  A
C111        H113   1.082       .  S
N114        N115   1.321       .  A
N114        C118   1.342       .  A
N115        C116   1.344       .  A
C116        C117   1.382       .  A
C116        H119   1.082       .  S
C117        C118   1.383       .  A
C117       C2143   1.474       .  S
C118        H120   1.082       .  S
N121        N122   1.323       .  A
N121        C125   1.344       .  A
N121       Cu129   2.069       .  S
N122        C123   1.347       .  A
N122       Cu128   2.077       .  S
C123        C124   1.383       .  A
C123        H126   1.082       .  S
C124        C125   1.381       .  A
C125        H127   1.082       .  S
Cu128       N131   2.077       .  S
Cu129       N139   2.069       .  S
Cu130       N132   2.068       .  S
Cu130       N138   2.068       .  S
N131        N132   1.323       .  A
N131        C135   1.344       .  A
N132        C133   1.345       .  A
C133        C134   1.380       .  A
C133        H136   1.082       .  S
C134        C135   1.382       .  A
C135        H137   1.082       .  S
N138        N139   1.322       .  A
N138        C142   1.343       .  A
N139        C140   1.345       .  A
C140        C141   1.381       .  A
C140        H143   1.082       .  S
C141        C142   1.382       .  A
C141       C2126   1.471       .  S
C142        H144   1.082       .  S
N145        N146   1.322       .  A
N145        C149   1.343       .  A
N145       Cu153   2.061       .  S
N146        C147   1.346       .  A
N146       Cu152   2.075       .  S
C147        C148   1.383       .  A
C147        H150   1.082       .  S
C148        C149   1.379       .  A
C148        C182   1.465       .  S
C149        H151   1.082       .  S
Cu152       N155   2.075       .  S
Cu153       N163   2.061       .  S
Cu154       N156   2.073       .  S
Cu154       N162   2.073       .  S
N155        N156   1.323       .  A
N155        C159   1.343       .  A
N156        C157   1.346       .  A
C157        C158   1.381       .  A
C157        H160   1.082       .  S
C158        C159   1.381       .  A
C158        C268   1.466       .  S
C159        H161   1.082       .  S
N162        N163   1.321       .  A
N162        C166   1.344       .  A
N163        C164   1.344       .  A
C164        C165   1.382       .  A
C164        H167   1.081       .  S
C165        C166   1.385       .  A
C165       C2112   1.476       .  S
C166        H168   1.082       .  S
N169        N170   1.323       .  A
N169        C173   1.345       .  A
N169       Cu177   2.073       .  S
N170        C171   1.346       .  A
N170       Cu176   2.076       .  S
C171        C172   1.382       .  A
C171        H174   1.082       .  S
C172        C173   1.381       .  A
C172        C206   1.468       .  S
C173        H175   1.082       .  S
Cu176       N179   2.075       .  S
Cu177       N187   2.073       .  S
Cu178       N180   2.066       .  S
Cu178       N186   2.067       .  S
N179        N180   1.322       .  A
N179        C183   1.344       .  A
N180        C181   1.345       .  A
C181        C182   1.380       .  A
C181        H184   1.082       .  S
C182        C183   1.382       .  A
C183        H185   1.082       .  S
N186        N187   1.320       .  A
N186        C190   1.342       .  A
N187        C188   1.345       .  A
C188        C189   1.388       .  A
C188        H191   1.082       .  S
C189        C190   1.388       .  A
C189       C2098   1.488       .  S
C190        H192   1.080       .  S
N193        N194   1.323       .  A
N193        C197   1.344       .  A
N193       Cu201   2.072       .  S
N194        C195   1.346       .  A
N194       Cu200   2.076       .  S
C195        C196   1.383       .  A
C195        H198   1.082       .  S
C196        C197   1.381       .  A
C196        C254   1.468       .  S
C197        H199   1.082       .  S
Cu200       N203   2.076       .  S
Cu201       N211   2.072       .  S
Cu202       N204   2.073       .  S
Cu202       N210   2.074       .  S
N203        N204   1.323       .  A
N203        C207   1.345       .  A
N204        C205   1.346       .  A
C205        C206   1.382       .  A
C205        H208   1.082       .  S
C206        C207   1.382       .  A
C207        H209   1.082       .  S
N210        N211   1.322       .  A
N210        C214   1.344       .  A
N211        C212   1.346       .  A
C212        C213   1.383       .  A
C212        H215   1.082       .  S
C213        C214   1.383       .  A
C213       C2084   1.475       .  S
C214        H216   1.082       .  S
N217        N218   1.322       .  A
N217        C221   1.343       .  A
N217       Cu225   2.062       .  S
N218        C219   1.346       .  A
N218       Cu224   2.077       .  S
C219        C220   1.383       .  A
C219        H222   1.082       .  S
C220        C221   1.379       .  A
C220        C278   1.466       .  S
C221        H223   1.082       .  S
Cu224       N227   2.077       .  S
Cu225       N235   2.062       .  S
Cu226       N228   2.080       .  S
Cu226       N234   2.080       .  S
N227        N228   1.323       .  A
N227        C231   1.345       .  A
N228        C229   1.346       .  A
C229        C230   1.383       .  A
C229        H232   1.082       .  S
C230        C231   1.382       .  A
C230        C244   1.469       .  S
C231        H233   1.082       .  S
N234        N235   1.321       .  A
N234        C238   1.345       .  A
N235        C236   1.344       .  A
C236        C237   1.383       .  A
C236        H239   1.082       .  S
C237        C238   1.387       .  A
C237       C2070   1.481       .  S
C238        H240   1.082       .  S
N241        N242   1.323       .  A
N241        C245   1.345       .  A
N241       Cu249   2.078       .  S
N242        C243   1.346       .  A
N242       Cu248   2.076       .  S
C243        C244   1.382       .  A
C243        H246   1.082       .  S
C244        C245   1.382       .  A
C245        H247   1.082       .  S
Cu248       N251   2.075       .  S
Cu249       N259   2.077       .  S
Cu250       N252   2.071       .  S
Cu250       N258   2.071       .  S
N251        N252   1.322       .  A
N251        C255   1.345       .  A
N252        C253   1.346       .  A
C253        C254   1.382       .  A
C253        H256   1.082       .  S
C254        C255   1.382       .  A
C255        H257   1.082       .  S
N258        N259   1.322       .  A
N258        C262   1.343       .  A
N259        C260   1.347       .  A
C260        C261   1.385       .  A
C260        H263   1.082       .  S
C261        C262   1.384       .  A
C261       C2056   1.481       .  S
C262        H264   1.082       .  S
N265        N266   1.323       .  A
N265        C269   1.342       .  A
N265       Cu273   2.064       .  S
N266        C267   1.347       .  A
N266       Cu272   2.079       .  S
C267        C268   1.383       .  A
C267        H270   1.082       .  S
C268        C269   1.379       .  A
C269        H271   1.082       .  S
Cu272       N275   2.079       .  S
Cu273       N283   2.063       .  S
Cu274       N276   2.066       .  S
Cu274       N282   2.066       .  S
N275        N276   1.323       .  A
N275        C279   1.345       .  A
N276        C277   1.344       .  A
C277        C278   1.380       .  A
C277        H280   1.082       .  S
C278        C279   1.382       .  A
C279        H281   1.082       .  S
N282        N283   1.319       .  A
N282        C286   1.342       .  A
N283        C284   1.344       .  A
C284        C285   1.387       .  A
C284        H287   1.081       .  S
C285        C286   1.387       .  A
C285       C2042   1.484       .  S
C286        H288   1.082       .  S
N289        N290   1.323       .  A
N289        C293   1.346       .  A
N289       Cu297   2.075       .  S
N290        C291   1.345       .  A
N290       Cu296   2.075       .  S
C291        C292   1.381       .  A
C291        H294   1.082       .  S
C292        C293   1.382       .  A
C292        C412   1.467       .  S
C293        H295   1.082       .  S
Cu296       N299   2.076       .  S
Cu297       N307   2.075       .  S
Cu298       N300   2.074       .  S
Cu298       N306   2.073       .  S
N299        N300   1.323       .  A
N299        C303   1.346       .  A
N300        C301   1.345       .  A
C301        C302   1.382       .  A
C301        H304   1.082       .  S
C302        C303   1.382       .  A
C302        C326   1.468       .  S
C303        H305   1.082       .  S
N306        N307   1.322       .  A
N306        C310   1.346       .  A
N307        C308   1.345       .  A
C308        C309   1.384       .  A
C308        H311   1.082       .  S
C309        C310   1.382       .  A
C309       C2028   1.476       .  S
C310        H312   1.082       .  S
N313        N314   1.323       .  A
N313        C317   1.344       .  A
N313       Cu321   2.069       .  S
N314        C315   1.346       .  A
N314       Cu320   2.078       .  S
C315        C316   1.383       .  A
C315        H318   1.082       .  S
C316        C317   1.380       .  A
C316        C350   1.468       .  S
C317        H319   1.082       .  S
Cu320       N323   2.078       .  S
Cu321       N331   2.069       .  S
Cu322       N324   2.075       .  S
Cu322       N330   2.075       .  S
N323        N324   1.323       .  A
N323        C327   1.346       .  A
N324        C325   1.346       .  A
C325        C326   1.382       .  A
C325        H328   1.082       .  S
C326        C327   1.382       .  A
C327        H329   1.082       .  S
N330        N331   1.322       .  A
N330        C334   1.345       .  A
N331        C332   1.345       .  A
C332        C333   1.380       .  A
C332        H335   1.082       .  S
C333        C334   1.382       .  A
C333       C2014   1.471       .  S
C334        H336   1.082       .  S
N337        N338   1.323       .  A
N337        C341   1.343       .  A
N337       Cu345   2.068       .  S
N338        C339   1.347       .  A
N338       Cu344   2.080       .  S
C339        C340   1.384       .  A
C339        H342   1.082       .  S
C340        C341   1.380       .  A
C340        C398   1.468       .  S
C341        H343   1.082       .  S
Cu344       N347   2.080       .  S
Cu345       N355   2.067       .  S
Cu346       N348   2.071       .  S
Cu346       N354   2.071       .  S
N347        N348   1.323       .  A
N347        C351   1.345       .  A
N348        C349   1.345       .  A
C349        C350   1.381       .  A
C349        H352   1.082       .  S
C350        C351   1.382       .  A
C351        H353   1.082       .  S
N354        N355   1.321       .  A
N354        C358   1.344       .  A
N355        C356   1.345       .  A
C356        C357   1.382       .  A
C356        H359   1.082       .  S
C357        C358   1.383       .  A
C357       C2000   1.473       .  S
C358        H360   1.082       .  S
N361        N362   1.323       .  A
N361        C365   1.342       .  A
N361       Cu369   2.065       .  S
N362        C363   1.347       .  A
N362       Cu368   2.078       .  S
C363        C364   1.384       .  A
C363        H366   1.082       .  S
C364        C365   1.379       .  A
C364        C422   1.466       .  S
C365        H367   1.082       .  S
Cu368       N371   2.078       .  S
Cu369       N379   2.064       .  S
Cu370       N372   2.067       .  S
Cu370       N378   2.067       .  S
N371        N372   1.323       .  A
N371        C375   1.344       .  A
N372        C373   1.345       .  A
C373        C374   1.380       .  A
C373        H376   1.082       .  S
C374        C375   1.382       .  A
C374        C388   1.465       .  S
C375        H377   1.082       .  S
N378        N379   1.321       .  A
N378        C382   1.343       .  A
N379        C380   1.345       .  A
C380        C381   1.382       .  A
C380        H383   1.082       .  S
C381        C382   1.383       .  A
C381       C1989   1.474       .  S
C382        H384   1.082       .  S
N385        N386   1.322       .  A
N385        C389   1.342       .  A
N385       Cu393   2.059       .  S
N386        C387   1.346       .  A
N386       Cu392   2.077       .  S
C387        C388   1.384       .  A
C387        H390   1.082       .  S
C388        C389   1.379       .  A
C389        H391   1.082       .  S
Cu392       N395   2.077       .  S
Cu393       N403   2.059       .  S
Cu394       N396   2.077       .  S
Cu394       N402   2.077       .  S
N395        N396   1.324       .  A
N395        C399   1.344       .  A
N396        C397   1.347       .  A
C397        C398   1.382       .  A
C397        H400   1.082       .  S
C398        C399   1.381       .  A
C399        H401   1.082       .  S
N402        N403   1.321       .  A
N402        C406   1.345       .  A
N403        C404   1.343       .  A
C404        C405   1.382       .  A
C404        H407   1.080       .  S
C405        C406   1.386       .  A
C405       C1972   1.478       .  S
C406        H408   1.082       .  S
N409        N410   1.322       .  A
N409        C413   1.344       .  A
N409       Cu417   2.069       .  S
N410        C411   1.346       .  A
N410       Cu416   2.075       .  S
C411        C412   1.383       .  A
C411        H414   1.082       .  S
C412        C413   1.381       .  A
C413        H415   1.082       .  S
Cu416       N419   2.075       .  S
Cu417       N427   2.069       .  S
Cu418       N420   2.074       .  S
Cu418       N426   2.075       .  S
N419        N420   1.323       .  A
N419        C423   1.343       .  A
N420        C421   1.347       .  A
C421        C422   1.382       .  A
C421        H424   1.082       .  S
C422        C423   1.381       .  A
C423        H425   1.082       .  S
N426        N427   1.322       .  A
N426        C430   1.344       .  A
N427        C428   1.345       .  A
C428        C429   1.382       .  A
C428        H431   1.082       .  S
C429        C430   1.385       .  A
C429       C1958   1.478       .  S
C430        H432   1.082       .  S
N433        N434   1.322       .  A
N433        C437   1.344       .  A
N433       Cu441   2.067       .  S
N434        C435   1.346       .  A
N434       Cu440   2.078       .  S
C435        C436   1.383       .  A
C435        H438   1.082       .  S
C436        C437   1.380       .  A
C436        C470   1.467       .  S
C437        H439   1.082       .  S
Cu440       N443   2.078       .  S
Cu441       N451   2.067       .  S
Cu442       N444   2.079       .  S
Cu442       N450   2.079       .  S
N443        N444   1.324       .  A
N443        C447   1.345       .  A
N444        C445   1.346       .  A
C445        C446   1.382       .  A
C445        H448   1.082       .  S
C446        C447   1.382       .  A
C446        C556   1.469       .  S
C447        H449   1.082       .  S
N450        N451   1.322       .  A
N450        C454   1.346       .  A
N451        C452   1.344       .  A
C452        C453   1.379       .  A
C452        H455   1.082       .  S
C453        C454   1.383       .  A
C453       C1944   1.472       .  S
C454        H456   1.082       .  S
N457        N458   1.322       .  A
N457        C461   1.343       .  A
N457       Cu465   2.061       .  S
N458        C459   1.346       .  A
N458       Cu464   2.078       .  S
C459        C460   1.383       .  A
C459        H462   1.082       .  S
C460        C461   1.379       .  A
C460        C494   1.465       .  S
C461        H463   1.082       .  S
Cu464       N467   2.079       .  S
Cu465       N475   2.061       .  S
Cu466       N468   2.074       .  S
Cu466       N474   2.074       .  S
N467        N468   1.323       .  A
N467        C471   1.345       .  A
N468        C469   1.346       .  A
C469        C470   1.381       .  A
C469        H472   1.082       .  S
C470        C471   1.382       .  A
C471        H473   1.082       .  S
N474        N475   1.321       .  A
N474        C478   1.344       .  A
N475        C476   1.343       .  A
C476        C477   1.383       .  A
C476        H479   1.080       .  S
C477        C478   1.386       .  A
C477       C1930   1.478       .  S
C478        H480   1.082       .  S
N481        N482   1.323       .  A
N481        C485   1.343       .  A
N481       Cu489   2.065       .  S
N482        C483   1.347       .  A
N482       Cu488   2.080       .  S
C483        C484   1.384       .  A
C483        H486   1.082       .  S
C484        C485   1.379       .  A
C484        C542   1.467       .  S
C485        H487   1.082       .  S
Cu488       N491   2.079       .  S
Cu489       N499   2.064       .  S
Cu490       N492   2.066       .  S
Cu490       N498   2.065       .  S
N491        N492   1.323       .  A
N491        C495   1.345       .  A
N492        C493   1.344       .  A
C493        C494   1.379       .  A
C493        H496   1.082       .  S
C494        C495   1.382       .  A
C495        H497   1.082       .  S
N498        N499   1.321       .  A
N498        C502   1.343       .  A
N499        C500   1.344       .  A
C500        C501   1.382       .  A
C500        H503   1.082       .  S
C501        C502   1.382       .  A
C501       C1916   1.471       .  S
C502        H504   1.082       .  S
N505        N506   1.323       .  A
N505        C509   1.345       .  A
N505       Cu513   2.075       .  S
N506        C507   1.347       .  A
N506       Cu512   2.077       .  S
C507        C508   1.383       .  A
C507        H510   1.082       .  S
C508        C509   1.382       .  A
C508        C566   1.470       .  S
C509        H511   1.082       .  S
Cu512       N515   2.077       .  S
Cu513       N523   2.074       .  S
Cu514       N516   2.074       .  S
Cu514       N522   2.075       .  S
N515        N516   1.323       .  A
N515        C519   1.344       .  A
N516        C517   1.346       .  A
C517        C518   1.382       .  A
C517        H520   1.082       .  S
C518        C519   1.382       .  A
C518        C532   1.468       .  S
C519        H521   1.082       .  S
N522        N523   1.322       .  A
N522        C526   1.344       .  A
N523        C524   1.346       .  A
C524        C525   1.383       .  A
C524        H527   1.082       .  S
C525        C526   1.384       .  A
C525       C1902   1.477       .  S
C526        H528   1.082       .  S
N529        N530   1.322       .  A
N529        C533   1.344       .  A
N529       Cu537   2.069       .  S
N530        C531   1.346       .  A
N530       Cu536   2.076       .  S
C531        C532   1.383       .  A
C531        H534   1.082       .  S
C532        C533   1.381       .  A
C533        H535   1.082       .  S
Cu536       N539   2.075       .  S
Cu537       N547   2.068       .  S
Cu538       N540   2.073       .  S
Cu538       N546   2.073       .  S
N539        N540   1.323       .  A
N539        C543   1.344       .  A
N540        C541   1.346       .  A
C541        C542   1.381       .  A
C541        H544   1.082       .  S
C542        C543   1.381       .  A
C543        H545   1.082       .  S
N546        N547   1.322       .  A
N546        C550   1.345       .  A
N547        C548   1.345       .  A
C548        C549   1.382       .  A
C548        H551   1.082       .  S
C549        C550   1.383       .  A
C549       C1888   1.474       .  S
C550        H552   1.082       .  S
N553        N554   1.322       .  A
N553        C557   1.345       .  A
N553       Cu561   2.072       .  S
N554        C555   1.346       .  A
N554       Cu560   2.075       .  S
C555        C556   1.383       .  A
C555        H558   1.082       .  S
C556        C557   1.382       .  A
C557        H559   1.082       .  S
Cu560       N563   2.075       .  S
Cu561       N571   2.072       .  S
Cu562       N564   2.084       .  S
Cu562       N570   2.084       .  S
N563        N564   1.323       .  A
N563        C567   1.344       .  A
N564        C565   1.348       .  A
C565        C566   1.384       .  A
C565        H568   1.082       .  S
C566        C567   1.381       .  A
C567        H569   1.082       .  S
N570        N571   1.322       .  A
N570        C574   1.346       .  A
N571        C572   1.345       .  A
C572        C573   1.385       .  A
C572        H575   1.080       .  S
C573        C574   1.388       .  A
C573       C1874   1.485       .  S
C574        H576   1.082       .  S
N577        N578   1.322       .  A
N577        C581   1.342       .  A
N577       Cu585   2.060       .  S
N578        C579   1.346       .  A
N578       Cu584   2.077       .  S
C579        C580   1.384       .  A
C579        H582   1.082       .  S
C580        C581   1.379       .  A
C580        C638   1.466       .  S
C581        H583   1.082       .  S
Cu584       N587   2.077       .  S
Cu585       N595   2.060       .  S
Cu586       N588   2.068       .  S
Cu586       N594   2.067       .  S
N587        N588   1.323       .  A
N587        C591   1.344       .  A
N588        C589   1.345       .  A
C589        C590   1.380       .  A
C589        H592   1.082       .  S
C590        C591   1.381       .  A
C590        C604   1.464       .  S
C591        H593   1.082       .  S
N594        N595   1.320       .  A
N594        C598   1.343       .  A
N595        C596   1.343       .  A
C596        C597   1.382       .  A
C596        H599   1.081       .  S
C597        C598   1.384       .  A
C597       C1860   1.475       .  S
C598        H600   1.082       .  S
N601        N602   1.322       .  A
N601        C605   1.343       .  A
N601       Cu609   2.059       .  S
N602        C603   1.346       .  A
N602       Cu608   2.076       .  S
C603        C604   1.383       .  A
C603        H606   1.082       .  S
C604        C605   1.379       .  A
C605        H607   1.082       .  S
Cu608       N611   2.076       .  S
Cu609       N619   2.059       .  S
Cu610       N612   2.074       .  S
Cu610       N618   2.074       .  S
N611        N612   1.323       .  A
N611        C615   1.344       .  A
N612        C613   1.346       .  A
C613        C614   1.381       .  A
C613        H616   1.082       .  S
C614        C615   1.381       .  A
C614        C652   1.466       .  S
C615        H617   1.082       .  S
N618        N619   1.321       .  A
N618        C622   1.344       .  A
N619        C620   1.344       .  A
C620        C621   1.381       .  A
C620        H623   1.082       .  S
C621        C622   1.386       .  A
C621       C1846   1.477       .  S
C622        H624   1.082       .  S
N625        N626   1.322       .  A
N625        C629   1.344       .  A
N625       Cu633   2.068       .  S
N626        C627   1.346       .  A
N626       Cu632   2.076       .  S
C627        C628   1.383       .  A
C627        H630   1.082       .  S
C628        C629   1.381       .  A
C628        C710   1.467       .  S
C629        H631   1.082       .  S
Cu632       N635   2.076       .  S
Cu633       N643   2.067       .  S
Cu634       N636   2.071       .  S
Cu634       N642   2.072       .  S
N635        N636   1.323       .  A
N635        C639   1.344       .  A
N636        C637   1.346       .  A
C637        C638   1.381       .  A
C637        H640   1.082       .  S
C638        C639   1.381       .  A
C639        H641   1.082       .  S
N642        N643   1.321       .  A
N642        C646   1.344       .  A
N643        C644   1.344       .  A
C644        C645   1.385       .  A
C644        H647   1.082       .  S
C645        C646   1.385       .  A
C645       C1832   1.481       .  S
C646        H648   1.082       .  S
N649        N650   1.323       .  A
N649        C653   1.343       .  A
N649       Cu657   2.065       .  S
N650        C651   1.346       .  A
N650       Cu656   2.079       .  S
C651        C652   1.383       .  A
C651        H654   1.082       .  S
C652        C653   1.379       .  A
C653        H655   1.082       .  S
Cu656       N659   2.078       .  S
Cu657       N667   2.064       .  S
Cu658       N660   2.071       .  S
Cu658       N666   2.071       .  S
N659        N660   1.323       .  A
N659        C663   1.345       .  A
N660        C661   1.345       .  A
C661        C662   1.381       .  A
C661        H664   1.082       .  S
C662        C663   1.382       .  A
C662        C676   1.467       .  S
C663        H665   1.082       .  S
N666        N667   1.320       .  A
N666        C670   1.343       .  A
N667        C668   1.344       .  A
C668        C669   1.385       .  A
C668        H671   1.082       .  S
C669        C670   1.388       .  A
C669       C1818   1.483       .  S
C670        H672   1.081       .  S
N673        N674   1.322       .  A
N673        C677   1.344       .  A
N673       Cu681   2.068       .  S
N674        C675   1.346       .  A
N674       Cu680   2.076       .  S
C675        C676   1.383       .  A
C675        H678   1.082       .  S
C676        C677   1.381       .  A
C677        H679   1.082       .  S
Cu680       N683   2.075       .  S
Cu681       N691   2.068       .  S
Cu682       N684   2.076       .  S
Cu682       N690   2.076       .  S
N683        N684   1.323       .  A
N683        C687   1.344       .  A
N684        C685   1.346       .  A
C685        C686   1.382       .  A
C685        H688   1.082       .  S
C686        C687   1.381       .  A
C686        C700   1.468       .  S
C687        H689   1.082       .  S
N690        N691   1.322       .  A
N690        C694   1.345       .  A
N691        C692   1.345       .  A
C692        C693   1.381       .  A
C692        H695   1.082       .  S
C693        C694   1.385       .  A
C693       C1804   1.477       .  S
C694        H696   1.081       .  S
N697        N698   1.322       .  A
N697        C701   1.344       .  A
N697       Cu705   2.070       .  S
N698        C699   1.346       .  A
N698       Cu704   2.076       .  S
C699        C700   1.383       .  A
C699        H702   1.082       .  S
C700        C701   1.381       .  A
C701        H703   1.082       .  S
Cu704       N707   2.076       .  S
Cu705       N715   2.069       .  S
Cu706       N708   2.075       .  S
Cu706       N714   2.075       .  S
N707        N708   1.323       .  A
N707        C711   1.344       .  A
N708        C709   1.346       .  A
C709        C710   1.382       .  A
C709        H712   1.082       .  S
C710        C711   1.381       .  A
C711        H713   1.082       .  S
N714        N715   1.322       .  A
N714        C718   1.344       .  A
N715        C716   1.345       .  A
C716        C717   1.382       .  A
C716        H719   1.082       .  S
C717        C718   1.384       .  A
C717       C1790   1.477       .  S
C718        H720   1.082       .  S
N721        N722   1.323       .  A
N721        C725   1.346       .  A
N721       Cu729   2.076       .  S
N722        C723   1.345       .  A
N722       Cu728   2.076       .  S
C723        C724   1.381       .  A
C723        H726   1.082       .  S
C724        C725   1.382       .  A
C724        C748   1.467       .  S
C725        H727   1.082       .  S
Cu728       N731   2.076       .  S
Cu729       N739   2.076       .  S
Cu730       N732   2.070       .  S
Cu730       N738   2.070       .  S
N731        N732   1.323       .  A
N731        C735   1.346       .  A
N732        C733   1.344       .  A
C733        C734   1.381       .  A
C733        H736   1.082       .  S
C734        C735   1.383       .  A
C734        C782   1.467       .  S
C735        H737   1.082       .  S
N738        N739   1.321       .  A
N738        C742   1.346       .  A
N739        C740   1.344       .  A
C740        C741   1.385       .  A
C740        H743   1.082       .  S
C741        C742   1.384       .  A
C741       C1776   1.480       .  S
C742        H744   1.082       .  S
N745        N746   1.322       .  A
N745        C749   1.344       .  A
N745       Cu753   2.069       .  S
N746        C747   1.346       .  A
N746       Cu752   2.077       .  S
C747        C748   1.383       .  A
C747        H750   1.082       .  S
C748        C749   1.381       .  A
C749        H751   1.082       .  S
Cu752       N755   2.077       .  S
Cu753       N763   2.069       .  S
Cu754       N756   2.072       .  S
Cu754       N762   2.072       .  S
N755        N756   1.323       .  A
N755        C759   1.344       .  A
N756        C757   1.346       .  A
C757        C758   1.381       .  A
C757        H760   1.082       .  S
C758        C759   1.381       .  A
C758        C796   1.466       .  S
C759        H761   1.082       .  S
N762        N763   1.322       .  A
N762        C766   1.344       .  A
N763        C764   1.345       .  A
C764        C765   1.382       .  A
C764        H767   1.082       .  S
C765        C766   1.384       .  A
C765       C1762   1.475       .  S
C766        H768   1.081       .  S
N769        N770   1.323       .  A
N769        C773   1.345       .  A
N769       Cu777   2.070       .  S
N770        C771   1.346       .  A
N770       Cu776   2.077       .  S
C771        C772   1.383       .  A
C771        H774   1.082       .  S
C772        C773   1.381       .  A
C772        C854   1.467       .  S
C773        H775   1.082       .  S
Cu776       N779   2.077       .  S
Cu777       N787   2.069       .  S
Cu778       N780   2.071       .  S
Cu778       N786   2.071       .  S
N779        N780   1.323       .  A
N779        C783   1.345       .  A
N780        C781   1.345       .  A
C781        C782   1.381       .  A
C781        H784   1.082       .  S
C782        C783   1.382       .  A
C783        H785   1.082       .  S
N786        N787   1.321       .  A
N786        C790   1.344       .  A
N787        C788   1.345       .  A
C788        C789   1.385       .  A
C788        H791   1.082       .  S
C789        C790   1.386       .  A
C789       C1748   1.482       .  S
C790        H792   1.082       .  S
N793        N794   1.322       .  A
N793        C797   1.342       .  A
N793       Cu801   2.063       .  S
N794        C795   1.347       .  A
N794       Cu800   2.077       .  S
C795        C796   1.384       .  A
C795        H798   1.082       .  S
C796        C797   1.379       .  A
C797        H799   1.082       .  S
Cu800       N803   2.077       .  S
Cu801       N811   2.062       .  S
Cu802       N804   2.071       .  S
Cu802       N810   2.071       .  S
N803        N804   1.323       .  A
N803        C807   1.344       .  A
N804        C805   1.346       .  A
C805        C806   1.381       .  A
C805        H808   1.082       .  S
C806        C807   1.381       .  A
C806        C820   1.466       .  S
C807        H809   1.082       .  S
N810        N811   1.321       .  A
N810        C814   1.344       .  A
N811        C812   1.344       .  A
C812        C813   1.381       .  A
C812        H815   1.082       .  S
C813        C814   1.383       .  A
C813       C1734   1.473       .  S
C814        H816   1.082       .  S
N817        N818   1.322       .  A
N817        C821   1.342       .  A
N817       Cu825   2.060       .  S
N818        C819   1.347       .  A
N818       Cu824   2.079       .  S
C819        C820   1.384       .  A
C819        H822   1.082       .  S
C820        C821   1.379       .  A
C821        H823   1.082       .  S
Cu824       N827   2.079       .  S
Cu825       N835   2.060       .  S
Cu826       N828   2.071       .  S
Cu826       N834   2.071       .  S
N827        N828   1.323       .  A
N827        C831   1.345       .  A
N828        C829   1.346       .  A
C829        C830   1.381       .  A
C829        H832   1.082       .  S
C830        C831   1.382       .  A
C830        C844   1.466       .  S
C831        H833   1.082       .  S
N834        N835   1.321       .  A
N834        C838   1.345       .  A
N835        C836   1.343       .  A
C836        C837   1.380       .  A
C836        H839   1.082       .  S
C837        C838   1.383       .  A
C837       C1720   1.472       .  S
C838        H840   1.082       .  S
N841        N842   1.323       .  A
N841        C845   1.343       .  A
N841       Cu849   2.066       .  S
N842        C843   1.347       .  A
N842       Cu848   2.081       .  S
C843        C844   1.383       .  A
C843        H846   1.082       .  S
C844        C845   1.379       .  A
C845        H847   1.082       .  S
Cu848       N851   2.080       .  S
Cu849       N859   2.065       .  S
Cu850       N852   2.071       .  S
Cu850       N858   2.071       .  S
N851        N852   1.323       .  A
N851        C855   1.346       .  A
N852        C853   1.345       .  A
C853        C854   1.380       .  A
C853        H856   1.082       .  S
C854        C855   1.383       .  A
C855        H857   1.082       .  S
N858        N859   1.321       .  A
N858        C862   1.344       .  A
N859        C860   1.345       .  A
C860        C861   1.383       .  A
C860        H863   1.082       .  S
C861        C862   1.383       .  A
C861       C1706   1.475       .  S
C862        H864   1.082       .  S
N865        N866   1.323       .  A
N865        C869   1.344       .  A
N865       Cu873   2.065       .  S
N866        C867   1.346       .  A
N866       Cu872   2.078       .  S
C867        C868   1.383       .  A
C867        H870   1.082       .  S
C868        C869   1.380       .  A
C868        C926   1.466       .  S
C869        H871   1.082       .  S
Cu872       N875   2.078       .  S
Cu873       N883   2.064       .  S
Cu874       N876   2.076       .  S
Cu874       N882   2.076       .  S
N875        N876   1.323       .  A
N875        C879   1.346       .  A
N876        C877   1.346       .  A
C877        C878   1.382       .  A
C877        H880   1.082       .  S
C878        C879   1.382       .  A
C878        C892   1.469       .  S
C879        H881   1.082       .  S
N882        N883   1.321       .  A
N882        C886   1.344       .  A
N883        C884   1.345       .  A
C884        C885   1.384       .  A
C884        H887   1.082       .  S
C885        C886   1.386       .  A
C885       C1695   1.481       .  S
C886        H888   1.082       .  S
N889        N890   1.323       .  A
N889        C893   1.346       .  A
N889       Cu897   2.077       .  S
N890        C891   1.345       .  A
N890       Cu896   2.078       .  S
C891        C892   1.382       .  A
C891        H894   1.082       .  S
C892        C893   1.382       .  A
C893        H895   1.082       .  S
Cu896       N899   2.077       .  S
Cu897       N907   2.076       .  S
Cu898       N900   2.073       .  S
Cu898       N906   2.073       .  S
N899        N900   1.322       .  A
N899        C903   1.346       .  A
N900        C901   1.346       .  A
C901        C902   1.382       .  A
C901        H904   1.082       .  S
C902        C903   1.383       .  A
C902        C940   1.469       .  S
C903        H905   1.082       .  S
N906        N907   1.321       .  A
N906        C910   1.343       .  A
N907        C908   1.347       .  A
C908        C909   1.386       .  A
C908        H911   1.082       .  S
C909        C910   1.386       .  A
C909       C1678   1.485       .  S
C910        H912   1.082       .  S
N913        N914   1.323       .  A
N913        C917   1.344       .  A
N913       Cu921   2.068       .  S
N914        C915   1.346       .  A
N914       Cu920   2.079       .  S
C915        C916   1.383       .  A
C915        H918   1.082       .  S
C916        C917   1.380       .  A
C916        C998   1.467       .  S
C917        H919   1.082       .  S
Cu920       N923   2.078       .  S
Cu921       N931   2.067       .  S
Cu922       N924   2.068       .  S
Cu922       N930   2.068       .  S
N923        N924   1.323       .  A
N923        C927   1.345       .  A
N924        C925   1.344       .  A
C925        C926   1.380       .  A
C925        H928   1.082       .  S
C926        C927   1.383       .  A
C927        H929   1.082       .  S
N930        N931   1.320       .  A
N930        C934   1.343       .  A
N931        C932   1.344       .  A
C932        C933   1.385       .  A
C932        H935   1.082       .  S
C933        C934   1.386       .  A
C933       C1664   1.481       .  S
C934        H936   1.082       .  S
N937        N938   1.323       .  A
N937        C941   1.345       .  A
N937       Cu945   2.076       .  S
N938        C939   1.346       .  A
N938       Cu944   2.077       .  S
C939        C940   1.382       .  A
C939        H942   1.082       .  S
C940        C941   1.382       .  A
C941        H943   1.082       .  S
Cu944       N947   2.076       .  S
Cu945       N955   2.075       .  S
Cu946       N948   2.068       .  S
Cu946       N954   2.069       .  S
N947        N948   1.322       .  A
N947        C951   1.345       .  A
N948        C949   1.345       .  A
C949        C950   1.380       .  A
C949        H952   1.082       .  S
C950        C951   1.382       .  A
C950        C964   1.466       .  S
C951        H953   1.082       .  S
N954        N955   1.320       .  A
N954        C958   1.343       .  A
N955        C956   1.345       .  A
C956        C957   1.388       .  A
C956        H959   1.082       .  S
C957        C958   1.388       .  A
C957       C1650   1.488       .  S
C958        H960   1.081       .  S
N961        N962   1.322       .  A
N961        C965   1.343       .  A
N961       Cu969   2.062       .  S
N962        C963   1.346       .  A
N962       Cu968   2.076       .  S
C963        C964   1.383       .  A
C963        H966   1.082       .  S
C964        C965   1.380       .  A
C965        H967   1.082       .  S
Cu968       N971   2.076       .  S
Cu969       N979   2.061       .  S
Cu970       N972   2.076       .  S
Cu970       N978   2.076       .  S
N971        N972   1.323       .  A
N971        C975   1.344       .  A
N972        C973   1.347       .  A
C973        C974   1.382       .  A
C973        H976   1.082       .  S
C974        C975   1.381       .  A
C974        C988   1.467       .  S
C975        H977   1.082       .  S
N978        N979   1.322       .  A
N978        C982   1.344       .  A
N979        C980   1.344       .  A
C980        C981   1.381       .  A
C980        H983   1.082       .  S
C981        C982   1.386       .  A
C981       C1636   1.477       .  S
C982        H984   1.082       .  S
N985        N986   1.322       .  A
N985        C989   1.343       .  A
N985       Cu993   2.065       .  S
N986        C987   1.347       .  A
N986       Cu992   2.079       .  S
C987        C988   1.384       .  A
C987        H990   1.082       .  S
C988        C989   1.380       .  A
C989        H991   1.082       .  S
Cu992       N995   2.079       .  S
Cu993      N1003   2.065       .  S
Cu994       N996   2.073       .  S
Cu994      N1002   2.073       .  S
N995        N996   1.323       .  A
N995        C999   1.345       .  A
N996        C997   1.346       .  A
C997        C998   1.381       .  A
C997       H1000   1.082       .  S
C998        C999   1.382       .  A
C999       H1001   1.082       .  S
N1002      N1003   1.321       .  A
N1002      C1006   1.344       .  A
N1003      C1004   1.344       .  A
C1004      C1005   1.383       .  A
C1004      H1007   1.082       .  S
C1005      C1006   1.386       .  A
C1005      C1622   1.478       .  S
C1006      H1008   1.081       .  S
N1009      N1010   1.322       .  A
N1009      C1013   1.344       .  A
N1009     Cu1017   2.065       .  S
N1010      C1011   1.345       .  A
N1010     Cu1016   2.073       .  S
C1011      C1012   1.383       .  A
C1011      H1014   1.082       .  S
C1012      C1013   1.380       .  A
C1012      C1046   1.466       .  S
C1013      H1015   1.082       .  S
Cu1016     N1019   2.073       .  S
Cu1017     N1027   2.065       .  S
Cu1018     N1020   2.085       .  S
Cu1018     N1026   2.085       .  S
N1019      N1020   1.323       .  A
N1019      C1023   1.344       .  A
N1020      C1021   1.348       .  A
C1021      C1022   1.384       .  A
C1021      H1024   1.082       .  S
C1022      C1023   1.381       .  A
C1022      C1108   1.470       .  S
C1023      H1025   1.082       .  S
N1026      N1027   1.321       .  A
N1026      C1030   1.346       .  A
N1027      C1028   1.345       .  A
C1028      C1029   1.384       .  A
C1028      H1031   1.081       .  S
C1029      C1030   1.389       .  A
C1029      C1611   1.485       .  S
C1030      H1032   1.082       .  S
N1033      N1034   1.323       .  A
N1033      C1037   1.344       .  A
N1033     Cu1041   2.069       .  S
N1034      C1035   1.346       .  A
N1034     Cu1040   2.077       .  S
C1035      C1036   1.382       .  A
C1035      H1038   1.082       .  S
C1036      C1037   1.380       .  A
C1036      C1070   1.465       .  S
C1037      H1039   1.082       .  S
Cu1040     N1043   2.076       .  S
Cu1041     N1051   2.068       .  S
Cu1042     N1044   2.067       .  S
Cu1042     N1050   2.068       .  S
N1043      N1044   1.322       .  A
N1043      C1047   1.345       .  A
N1044      C1045   1.345       .  A
C1045      C1046   1.381       .  A
C1045      H1048   1.082       .  S
C1046      C1047   1.382       .  A
C1047      H1049   1.082       .  S
N1050      N1051   1.319       .  A
N1050      C1054   1.341       .  A
N1051      C1052   1.345       .  A
C1052      C1053   1.390       .  A
C1052      H1055   1.081       .  S
C1053      C1054   1.391       .  A
C1053      C1597   1.494       .  S
C1054      H1056   1.079       .  S
N1057      N1058   1.322       .  A
N1057      C1061   1.342       .  A
N1057     Cu1065   2.059       .  S
N1058      C1059   1.346       .  A
N1058     Cu1064   2.078       .  S
C1059      C1060   1.383       .  A
C1059      H1062   1.082       .  S
C1060      C1061   1.378       .  A
C1060      C1094   1.464       .  S
C1061      H1063   1.082       .  S
Cu1064     N1067   2.078       .  S
Cu1065     N1075   2.058       .  S
Cu1066     N1068   2.070       .  S
Cu1066     N1074   2.070       .  S
N1067      N1068   1.323       .  A
N1067      C1071   1.345       .  A
N1068      C1069   1.345       .  A
C1069      C1070   1.380       .  A
C1069      H1072   1.082       .  S
C1070      C1071   1.382       .  A
C1071      H1073   1.082       .  S
N1074      N1075   1.321       .  A
N1074      C1078   1.344       .  A
N1075      C1076   1.343       .  A
C1076      C1077   1.381       .  A
C1076      H1079   1.082       .  S
C1077      C1078   1.383       .  A
C1077      C1580   1.472       .  S
C1078      H1080   1.082       .  S
N1081      N1082   1.322       .  A
N1081      C1085   1.343       .  A
N1081     Cu1089   2.065       .  S
N1082      C1083   1.346       .  A
N1082     Cu1088   2.078       .  S
C1083      C1084   1.383       .  A
C1083      H1086   1.082       .  S
C1084      C1085   1.379       .  A
C1084      C1142   1.466       .  S
C1085      H1087   1.082       .  S
Cu1088     N1091   2.077       .  S
Cu1089     N1099   2.064       .  S
Cu1090     N1092   2.066       .  S
Cu1090     N1098   2.066       .  S
N1091      N1092   1.323       .  A
N1091      C1095   1.344       .  A
N1092      C1093   1.345       .  A
C1093      C1094   1.379       .  A
C1093      H1096   1.082       .  S
C1094      C1095   1.382       .  A
C1095      H1097   1.082       .  S
N1098      N1099   1.320       .  A
N1098      C1102   1.342       .  A
N1099      C1100   1.344       .  A
C1100      C1101   1.385       .  A
C1100      H1103   1.081       .  S
C1101      C1102   1.385       .  A
C1101      C1569   1.479       .  S
C1102      H1104   1.082       .  S
N1105      N1106   1.322       .  A
N1105      C1109   1.345       .  A
N1105     Cu1113   2.073       .  S
N1106      C1107   1.347       .  A
N1106     Cu1112   2.077       .  S
C1107      C1108   1.383       .  A
C1107      H1110   1.082       .  S
C1108      C1109   1.382       .  A
C1109      H1111   1.082       .  S
Cu1112     N1115   2.076       .  S
Cu1113     N1123   2.073       .  S
Cu1114     N1116   2.078       .  S
Cu1114     N1122   2.079       .  S
N1115      N1116   1.323       .  A
N1115      C1119   1.344       .  A
N1116      C1117   1.347       .  A
C1117      C1118   1.383       .  A
C1117      H1120   1.082       .  S
C1118      C1119   1.381       .  A
C1118      C1132   1.468       .  S
C1119      H1121   1.082       .  S
N1122      N1123   1.322       .  A
N1122      C1126   1.345       .  A
N1123      C1124   1.346       .  A
C1124      C1125   1.382       .  A
C1124      H1127   1.082       .  S
C1125      C1126   1.385       .  A
C1125      C1552   1.477       .  S
C1126      H1128   1.082       .  S
N1129      N1130   1.323       .  A
N1129      C1133   1.344       .  A
N1129     Cu1137   2.072       .  S
N1130      C1131   1.347       .  A
N1130     Cu1136   2.077       .  S
C1131      C1132   1.383       .  A
C1131      H1134   1.082       .  S
C1132      C1133   1.381       .  A
C1133      H1135   1.082       .  S
Cu1136     N1139   2.077       .  S
Cu1137     N1147   2.071       .  S
Cu1138     N1140   2.071       .  S
Cu1138     N1146   2.071       .  S
N1139      N1140   1.323       .  A
N1139      C1143   1.344       .  A
N1140      C1141   1.346       .  A
C1141      C1142   1.381       .  A
C1141      H1144   1.082       .  S
C1142      C1143   1.382       .  A
C1143      H1145   1.082       .  S
N1146      N1147   1.322       .  A
N1146      C1150   1.344       .  A
N1147      C1148   1.346       .  A
C1148      C1149   1.384       .  A
C1148      H1151   1.082       .  S
C1149      C1150   1.383       .  A
C1149      C1538   1.477       .  S
C1150      H1152   1.082       .  S
C1153      C1154   1.406       .  A
C1153      C1158   1.405       .  A
C1153      C1524   1.481       .  S
C1154      C1155   1.404       .  A
C1154      H1159   1.084       .  S
C1155      C1156   1.400       .  A
C1155      C1667   1.484       .  S
C1156      C1157   1.400       .  A
C1156      H1160   1.084       .  S
C1157      C1158   1.403       .  A
C1157      C1583   1.481       .  S
C1158      H1161   1.084       .  S
C1162      C1163   1.410       .  A
C1162      C1167   1.414       .  A
C1162      C1510   1.496       .  S
C1163      C1164   1.404       .  A
C1163      H1168   1.081       .  S
C1164      C1165   1.397       .  A
C1164      C1751   1.484       .  S
C1165      C1166   1.399       .  A
C1165      H1169   1.084       .  S
C1166      C1167   1.409       .  A
C1166      C1608   1.490       .  S
C1167      H1170   1.083       .  S
C1171      C1172   1.405       .  A
C1171      C1176   1.407       .  A
C1171      C1499   1.481       .  S
C1172      C1173   1.404       .  A
C1172      H1177   1.084       .  S
C1173      C1174   1.401       .  A
C1173      C1835   1.482       .  S
C1174      C1175   1.402       .  A
C1174      H1178   1.084       .  S
C1175      C1176   1.405       .  A
C1175      C1541   1.485       .  S
C1176      H1179   1.084       .  S
C1180      C1181   1.408       .  A
C1180      C1185   1.406       .  A
C1180      C1482   1.482       .  S
C1181      C1182   1.408       .  A
C1181      H1186   1.083       .  S
C1182      C1183   1.402       .  A
C1182      C2101   1.492       .  S
C1183      C1184   1.398       .  A
C1183      H1187   1.084       .  S
C1184      C1185   1.401       .  A
C1184      C1639   1.479       .  S
C1185      H1188   1.084       .  S
C1189      C1190   1.405       .  A
C1189      C1194   1.405       .  A
C1189      C1468   1.478       .  S
C1190      C1191   1.403       .  A
C1190      H1195   1.084       .  S
C1191      C1192   1.399       .  A
C1191      C1933   1.479       .  S
C1192      C1193   1.399       .  A
C1192      H1196   1.084       .  S
C1193      C1194   1.403       .  A
C1193      C1723   1.477       .  S
C1194      H1197   1.084       .  S
C1198      C1199   1.408       .  A
C1198      C1203   1.409       .  A
C1198      C1454   1.486       .  S
C1199      C1200   1.401       .  A
C1199      H1204   1.084       .  S
C1200      C1201   1.397       .  A
C1200      C2017   1.475       .  S
C1201      C1202   1.401       .  A
C1201      H1205   1.085       .  S
C1202      C1203   1.406       .  A
C1202      C1807   1.485       .  S
C1203      H1206   1.082       .  S
C1207      C1208   1.409       .  A
C1207      C1212   1.409       .  A
C1207      C1440   1.488       .  S
C1208      C1209   1.404       .  A
C1208      H1213   1.084   1_455  S
C1209      C1210   1.400       .  A
C1209      C2171   1.484   1_455  S
C1210      C1211   1.401       .  A
C1210      H1214   1.085       .  S
C1211      C1212   1.406       .  A
C1211      C2031   1.486       .  S
C1212      H1215   1.082       .  S
C1216      C1217   1.410   1_455  A
C1216      C1221   1.410       .  A
C1216      C1426   1.491       .  S
C1217      C1218   1.404       .  A
C1217      H1222   1.084       .  S
C1218      C1219   1.398   1_655  A
C1218      C2087   1.484       .  S
C1219      C1220   1.400       .  A
C1219      H1223   1.084       .  S
C1220      C1221   1.406       .  A
C1220      C1793   1.487       .  S
C1221      H1224   1.083       .  S
C1225      C1226   1.405       .  A
C1225      C1230   1.406   1_565  A
C1225      C1412   1.479       .  S
C1226      C1227   1.401       .  A
C1226      H1231   1.084       .  S
C1227      C1228   1.399       .  A
C1227      C1919   1.477       .  S
C1228      C1229   1.399   1_565  A
C1228      H1232   1.085       .  S
C1229      C1230   1.404       .  A
C1229      C1625   1.479       .  S
C1230      H1233   1.084       .  S
C1234      C1235   1.404       .  A
C1234      C1239   1.407   1_565  A
C1234      C1398   1.480       .  S
C1235      C1236   1.399       .  A
C1235      H1240   1.084       .  S
C1236      C1237   1.398       .  A
C1236      C2140   1.474       .  S
C1237      C1238   1.401   1_565  A
C1237      H1241   1.084       .  S
C1238      C1239   1.406       .  A
C1238      C2115   1.485       .  S
C1239      H1242   1.084       .  S
C1243      C1244   1.407   1_554  A
C1243      C1248   1.406       .  A
C1243      C1384   1.483       .  S
C1244      C1245   1.402       .  A
C1244      H1249   1.084       .  S
C1245      C1246   1.399   1_556  A
C1245      C2003   1.481       .  S
C1246      C1247   1.401       .  A
C1246      H1250   1.084       .  S
C1247      C1248   1.405       .  A
C1247      C1709   1.484       .  S
C1248      H1251   1.084       .  S
C1252      C1253   1.398       .  A
C1252      C1257   1.403       .  A
C1252      C1947   1.473       .  S
C1253      C1254   1.400   1_554  A
C1253      H1258   1.085       .  S
C1254      C1255   1.403       .  A
C1254      C2199   1.477       .  S
C1255      C1256   1.405   1_556  A
C1255      H1259   1.084       .  S
C1256      C1257   1.405       .  A
C1256      C1370   1.477       .  S
C1257      H1260   1.084       .  S
C1261      C1262   1.408       .  A
C1261      C1266   1.408   1_455  A
C1261      C1429   1.488       .  S
C1262      C1263   1.404       .  A
C1262      H1267   1.083       .  S
C1263      C1264   1.401       .  A
C1263      C1555   1.486       .  S
C1264      C1265   1.403   1_455  A
C1264      H1268   1.084       .  S
C1265      C1266   1.407       .  A
C1265      C1653   1.492       .  S
C1266      H1269   1.082       .  S
C1270      C1271   1.409       .  A
C1270      C1275   1.410       .  A
C1270      C1443   1.488       .  S
C1271      C1272   1.404       .  A
C1271      H1276   1.082   1_455  S
C1272      C1273   1.400       .  A
C1272      C1905   1.487   1_455  S
C1273      C1274   1.401       .  A
C1273      H1277   1.084       .  S
C1274      C1275   1.407       .  A
C1274      C1779   1.491       .  S
C1275      H1278   1.083       .  S
C1279      C1280   1.406       .  A
C1279      C1284   1.405   1_565  A
C1279      C1415   1.480       .  S
C1280      C1281   1.404       .  A
C1280      H1285   1.084       .  S
C1281      C1282   1.400       .  A
C1281      C1737   1.481       .  S
C1282      C1283   1.400   1_565  A
C1282      H1286   1.084       .  S
C1283      C1284   1.401       .  A
C1283      C1566   1.479       .  S
C1284      H1287   1.084       .  S
C1288      C1289   1.405       .  A
C1288      C1293   1.402   1_565  A
C1288      C1401   1.475       .  S
C1289      C1290   1.406       .  A
C1289      H1294   1.083       .  S
C1290      C1291   1.402       .  A
C1290      C1986   1.485       .  S
C1291      C1292   1.398   1_565  A
C1291      H1295   1.084   1_565  S
C1292      C1293   1.399       .  A
C1292      C1863   1.475       .  S
C1293      H1296   1.084       .  S
C1297      C1298   1.407   1_554  A
C1297      C1302   1.410       .  A
C1297      C1387   1.484       .  S
C1298      C1299   1.402       .  A
C1298      H1303   1.083       .  S
C1299      C1300   1.398   1_556  A
C1299      C1821   1.486       .  S
C1300      C1301   1.402       .  A
C1300      H1304   1.084       .  S
C1301      C1302   1.408       .  A
C1301      C1594   1.494       .  S
C1302      H1305   1.082       .  S
C1306      C1307   1.406   1_554  A
C1306      C1311   1.405       .  A
C1306      C1373   1.477       .  S
C1307      C1308   1.405       .  A
C1307      H1312   1.084       .  S
C1308      C1309   1.400   1_556  A
C1308      C2073   1.485       .  S
C1309      C1310   1.401       .  A
C1309      H1313   1.084       .  S
C1310      C1311   1.405       .  A
C1310      C1692   1.486       .  S
C1311      H1314   1.084       .  S
C1315      C1316   1.406       .  A
C1315      C1320   1.407       .  A
C1315      C1471   1.484       .  S
C1316      C1317   1.403       .  A
C1316      H1321   1.083       .  S
C1317      C1318   1.399       .  A
C1317      C2185   1.480       .  S
C1318      C1319   1.399       .  A
C1318      H1322   1.084       .  S
C1319      C1320   1.403       .  A
C1319      C1975   1.479       .  S
C1320      H1323   1.084       .  S
C1324      C1325   1.406       .  A
C1324      C1329   1.408       .  A
C1324      C1527   1.484       .  S
C1325      C1326   1.403       .  A
C1325      H1330   1.083       .  S
C1326      C1327   1.400       .  A
C1326      C2045   1.485       .  S
C1327      C1328   1.399       .  A
C1327      H1331   1.084       .  S
C1328      C1329   1.403       .  A
C1328      C1849   1.481       .  S
C1329      H1332   1.084       .  S
C1333      C1334   1.408       .  A
C1333      C1338   1.408       .  A
C1333      C1457   1.487       .  S
C1334      C1335   1.405       .  A
C1334      H1339   1.082       .  S
C1335      C1336   1.401       .  A
C1335      C2157   1.488       .  S
C1336      C1337   1.403       .  A
C1336      H1340   1.084       .  S
C1337      C1338   1.406       .  A
C1337      C2059   1.494       .  S
C1338      H1341   1.083       .  S
C1342      C1343   1.411       .  A
C1342      C1347   1.411       .  A
C1342      C1513   1.493       .  S
C1343      C1344   1.404       .  A
C1343      H1348   1.084       .  S
C1344      C1345   1.398       .  A
C1344      C1877   1.486       .  S
C1345      C1346   1.402       .  A
C1345      H1349   1.084       .  S
C1346      C1347   1.408       .  A
C1346      C1681   1.490       .  S
C1347      H1350   1.082       .  S
C1351      C1352   1.407       .  A
C1351      C1356   1.407       .  A
C1351      C1485   1.482       .  S
C1352      C1353   1.403       .  A
C1352      H1357   1.084       .  S
C1353      C1354   1.399       .  A
C1353      C2129   1.481       .  S
C1354      C1355   1.400       .  A
C1354      H1358   1.085       .  S
C1355      C1356   1.404       .  A
C1355      C1891   1.481       .  S
C1356      H1359   1.084       .  S
C1360      C1361   1.409       .  A
C1360      C1365   1.407       .  A
C1360      C1496   1.484       .  S
C1361      C1362   1.407       .  A
C1361      H1366   1.083       .  S
C1362      C1363   1.402       .  A
C1362      C1961   1.492       .  S
C1363      C1364   1.400       .  A
C1363      H1367   1.084       .  S
C1364      C1365   1.403       .  A
C1364      C1765   1.486       .  S
C1365      H1368   1.083       .  S
C1369      C1370   1.402       .  A
C1369      C1374   1.402   1_565  A
C1369      H1376   1.084       .  S
C1370      C1371   1.416       .  A
C1371      C1372   1.403   1_565  A
C1371      N1378   1.438       .  S
C1372      C1373   1.403       .  A
C1372      H1377   1.084       .  S
C1373      C1374   1.416       .  A
C1374      N1375   1.439       .  S
N1375      H1379   1.045   1_554  S
N1375      H1380   1.043       .  S
N1378      H1381   1.043       .  S
N1378      H1382   1.045       .  S
C1383      C1384   1.405       .  A
C1383      C1388   1.404   1_565  A
C1383      H1390   1.084       .  S
C1384      C1385   1.417       .  A
C1385      C1386   1.400   1_565  A
C1385      N1392   1.440   1_554  S
C1386      C1387   1.403       .  A
C1386      H1391   1.084   1_554  S
C1387      C1388   1.418       .  A
C1388      N1389   1.439       .  S
N1389      H1393   1.046       .  S
N1389      H1394   1.042       .  S
N1392      H1395   1.042       .  S
N1392      H1396   1.046   1_556  S
C1397      C1398   1.404   1_445  A
C1397      C1402   1.401       .  A
C1397      H1404   1.084   1_455  S
C1398      C1399   1.419   1_655  A
C1399      C1400   1.400       .  A
C1399      N1406   1.440       .  S
C1400      C1401   1.401       .  A
C1400      H1405   1.085       .  S
C1401      C1402   1.416   1_565  A
C1402      N1403   1.439       .  S
N1403      H1407   1.046       .  S
N1403      H1408   1.043       .  S
N1406      H1409   1.042   1_455  S
N1406      H1410   1.046       .  S
C1411      C1412   1.403   1_445  A
C1411      C1416   1.402       .  A
C1411      H1418   1.084       .  S
C1412      C1413   1.418   1_655  A
C1413      C1414   1.400       .  A
C1413      N1420   1.440       .  S
C1414      C1415   1.403       .  A
C1414      H1419   1.084       .  S
C1415      C1416   1.418   1_565  A
C1416      N1417   1.440       .  S
N1417      H1421   1.046       .  S
N1417      H1422   1.042       .  S
N1420      H1423   1.042   1_455  S
N1420      H1424   1.046       .  S
C1425      C1426   1.405       .  A
C1425      C1430   1.400   1_556  A
C1425      H1432   1.084   1_455  S
C1426      C1427   1.415   1_556  A
C1427      C1428   1.408       .  A
C1427      N1434   1.438   1_554  S
C1428      C1429   1.405       .  A
C1428      H1433   1.084       .  S
C1429      C1430   1.416       .  A
C1430      N1431   1.433   1_455  S
N1431      H1435   1.045       .  S
N1431      H1436   1.043       .  S
N1434      H1437   1.045       .  S
N1434      H1438   1.046   1_556  S
C1439      C1440   1.405   1_554  A
C1439      C1444   1.405       .  A
C1439      H1446   1.084   1_554  S
C1440      C1441   1.419   1_556  A
C1441      C1442   1.403       .  A
C1441      N1448   1.440   1_554  S
C1442      C1443   1.404       .  A
C1442      H1447   1.084       .  S
C1443      C1444   1.419       .  A
C1444      N1445   1.439       .  S
N1445      H1449   1.046       .  S
N1445      H1450   1.042       .  S
N1448      H1451   1.042       .  S
N1448      H1452   1.046       .  S
C1453      C1454   1.403       .  A
C1453      C1458   1.401       .  A
C1453      H1460   1.084       .  S
C1454      C1455   1.418       .  A
C1455      C1456   1.404       .  A
C1455      N1462   1.438       .  S
C1456      C1457   1.405       .  A
C1456      H1461   1.084       .  S
C1457      C1458   1.419       .  A
C1458      N1459   1.438       .  S
N1459      H1463   1.046       .  S
N1459      H1464   1.042       .  S
N1462      H1465   1.043       .  S
N1462      H1466   1.045       .  S
C1467      C1468   1.402       .  A
C1467      C1472   1.399       .  A
C1467      H1474   1.084       .  S
C1468      C1469   1.413       .  A
C1469      C1470   1.399       .  A
C1469      N1476   1.433       .  S
C1470      C1471   1.405       .  A
C1470      H1475   1.084       .  S
C1471      C1472   1.417       .  A
C1472      N1473   1.433       .  S
N1473      H1477   1.043       .  S
N1473      H1478   1.045       .  S
N1476      H1479   1.045       .  S
N1476      H1480   1.044       .  S
C1481      C1482   1.403       .  A
C1481      C1486   1.400       .  A
C1481      H1488   1.084       .  S
C1482      C1483   1.417       .  A
C1483      C1484   1.402       .  A
C1483      N1490   1.438       .  S
C1484      C1485   1.404       .  A
C1484      H1489   1.084       .  S
C1485      C1486   1.417       .  A
C1486      N1487   1.438       .  S
N1487      H1491   1.045       .  S
N1487      H1492   1.043       .  S
N1490      H1493   1.043       .  S
N1490      H1494   1.045       .  S
C1495      C1496   1.404       .  A
C1495      C1500   1.400       .  A
C1495      H1502   1.084       .  S
C1496      C1497   1.418       .  A
C1497      C1498   1.403       .  A
C1497      N1504   1.438       .  S
C1498      C1499   1.404       .  A
C1498      H1503   1.084       .  S
C1499      C1500   1.416       .  A
C1500      N1501   1.438       .  S
N1501      H1505   1.045       .  S
N1501      H1506   1.043       .  S
N1504      H1507   1.043       .  S
N1504      H1508   1.045       .  S
C1509      C1510   1.407       .  A
C1509      C1514   1.408       .  A
C1509      H1516   1.084       .  S
C1510      C1511   1.421       .  A
C1511      C1512   1.400       .  A
C1511      N1518   1.433       .  S
C1512      C1513   1.403       .  A
C1512      H1517   1.084       .  S
C1513      C1514   1.412       .  A
C1514      N1515   1.432       .  S
N1515      H1519   1.046       .  S
N1515      H1520   1.045       .  S
N1518      H1521   1.044       .  S
N1518      H1522   1.044       .  S
C1523      C1524   1.402       .  A
C1523      C1528   1.397       .  A
C1523      H1530   1.084       .  S
C1524      C1525   1.412       .  A
C1525      C1526   1.407       .  A
C1525      N1532   1.438       .  S
C1526      C1527   1.405       .  A
C1526      H1531   1.084       .  S
C1527      C1528   1.417       .  A
C1528      N1529   1.433       .  S
N1529      H1533   1.045       .  S
N1529      H1534   1.043       .  S
N1532      H1535   1.045       .  S
N1532      H1536   1.046       .  S
C1537      C1538   1.402       .  A
C1537      C1542   1.403       .  A
C1537      H1544   1.084       .  S
C1538      C1539   1.419       .  A
C1539      C1540   1.404       .  A
C1539      N1546   1.439       .  S
C1540      C1541   1.404       .  A
C1540      H1545   1.084       .  S
C1541      C1542   1.412       .  A
C1542      N1543   1.438       .  S
N1543      H1547   1.046       .  S
N1543      H1548   1.045       .  S
N1546      H1549   1.042       .  S
N1546      H1550   1.046       .  S
C1551      C1552   1.402       .  A
C1551      C1556   1.402       .  A
C1551      H1558   1.084       .  S
C1552      C1553   1.412       .  A
C1553      C1554   1.398       .  A
C1553      N1560   1.433       .  S
C1554      C1555   1.405       .  A
C1554      H1559   1.084       .  S
C1555      C1556   1.417       .  A
C1556      N1557   1.433       .  S
N1557      H1561   1.044       .  S
N1557      H1562   1.045       .  S
N1560      H1563   1.045       .  S
N1560      H1564   1.044       .  S
C1565      C1566   1.403       .  A
C1565      C1570   1.402       .  A
C1565      H1572   1.084       .  S
C1566      C1567   1.418       .  A
C1567      C1568   1.398       .  A
C1567      N1574   1.438       .  S
C1568      C1569   1.402       .  A
C1568      H1573   1.084       .  S
C1569      C1570   1.410       .  A
C1570      N1571   1.432       .  S
N1571      H1575   1.046       .  S
N1571      H1576   1.046       .  S
N1574      H1577   1.043       .  S
N1574      H1578   1.046       .  S
C1579      C1580   1.402       .  A
C1579      C1584   1.402       .  A
C1579      H1586   1.084       .  S
C1580      C1581   1.418       .  A
C1581      C1582   1.401       .  A
C1581      N1588   1.439       .  S
C1582      C1583   1.402       .  A
C1582      H1587   1.084       .  S
C1583      C1584   1.412       .  A
C1584      N1585   1.438       .  S
N1585      H1589   1.046       .  S
N1585      H1590   1.045       .  S
N1588      H1591   1.042       .  S
N1588      H1592   1.046       .  S
C1593      C1594   1.406       .  A
C1593      C1598   1.398       .  A
C1593      H1600   1.084       .  S
C1594      C1595   1.410       .  A
C1595      C1596   1.407       .  A
C1595      N1602   1.432       .  S
C1596      C1597   1.410       .  A
C1596      H1601   1.082       .  S
C1597      C1598   1.413       .  A
C1598      N1599   1.431       .  S
N1599      H1603   1.044       .  S
N1599      H1604   1.047       .  S
N1602      H1605   1.046       .  S
N1602      H1606   1.045       .  S
C1607      C1608   1.403       .  A
C1607      C1612   1.410       .  A
C1607      H1614   1.083       .  S
C1608      C1609   1.416       .  A
C1609      C1610   1.402       .  A
C1609      N1616   1.439       .  S
C1610      C1611   1.401       .  A
C1610      H1615   1.083       .  S
C1611      C1612   1.416       .  A
C1612      N1613   1.437       .  S
N1613      H1617   1.046       .  S
N1613      H1618   1.045       .  S
N1616      H1619   1.045       .  S
N1616      H1620   1.046       .  S
C1621      C1622   1.404       .  A
C1621      C1626   1.402       .  A
C1621      H1628   1.084       .  S
C1622      C1623   1.412       .  A
C1623      C1624   1.396       .  A
C1623      N1630   1.432       .  S
C1624      C1625   1.404       .  A
C1624      H1629   1.084       .  S
C1625      C1626   1.418       .  A
C1626      N1627   1.438       .  S
N1627      H1631   1.046       .  S
N1627      H1632   1.041       .  S
N1630      H1633   1.045       .  S
N1630      H1634   1.043       .  S
C1635      C1636   1.406       .  A
C1635      C1640   1.404       .  A
C1635      H1642   1.084       .  S
C1636      C1637   1.415       .  A
C1637      C1638   1.397       .  A
C1637      N1644   1.440       .  S
C1638      C1639   1.404       .  A
C1638      H1643   1.085       .  S
C1639      C1640   1.416       .  A
C1640      N1641   1.439       .  S
N1641      H1645   1.046       .  S
N1641      H1646   1.042       .  S
N1644      H1647   1.042       .  S
N1644      H1648   1.046       .  S
C1649      C1650   1.406       .  A
C1649      C1654   1.405       .  A
C1649      H1656   1.083       .  S
C1650      C1651   1.412       .  A
C1651      C1652   1.402       .  A
C1651      N1658   1.432       .  S
C1652      C1653   1.406       .  A
C1652      H1657   1.084       .  S
C1653      C1654   1.412       .  A
C1654      N1655   1.432       .  S
N1655      H1659   1.045       .  S
N1655      H1660   1.046       .  S
N1658      H1661   1.046       .  S
N1658      H1662   1.045       .  S
C1663      C1664   1.405       .  A
C1663      C1668   1.406       .  A
C1663      H1670   1.083       .  S
C1664      C1665   1.411       .  A
C1665      C1666   1.402       .  A
C1665      N1672   1.438       .  S
C1666      C1667   1.404       .  A
C1666      H1671   1.084       .  S
C1667      C1668   1.412       .  A
C1668      N1669   1.438       .  S
N1669      H1673   1.046       .  S
N1669      H1674   1.046       .  S
N1672      H1675   1.045       .  S
N1672      H1676   1.046       .  S
C1677      C1678   1.406       .  A
C1677      C1682   1.410       .  A
C1677      H1684   1.083       .  S
C1678      C1679   1.411       .  A
C1679      C1680   1.402       .  A
C1679      N1686   1.438       .  S
C1680      C1681   1.405       .  A
C1680      H1685   1.084       .  S
C1681      C1682   1.413       .  A
C1682      N1683   1.437       .  S
N1683      H1687   1.046       .  S
N1683      H1688   1.045       .  S
N1686      H1689   1.045       .  S
N1686      H1690   1.046       .  S
C1691      C1692   1.403       .  A
C1691      C1696   1.408       .  A
C1691      H1698   1.084       .  S
C1692      C1693   1.414       .  A
C1693      C1694   1.402       .  A
C1693      N1700   1.438       .  S
C1694      C1695   1.401       .  A
C1694      H1699   1.084       .  S
C1695      C1696   1.414       .  A
C1696      N1697   1.437       .  S
N1697      H1701   1.046       .  S
N1697      H1702   1.045       .  S
N1700      H1703   1.045       .  S
N1700      H1704   1.046       .  S
C1705      C1706   1.401       .  A
C1705      C1710   1.402       .  A
C1705      H1712   1.084       .  S
C1706      C1707   1.418       .  A
C1707      C1708   1.403       .  A
C1707      N1714   1.439       .  S
C1708      C1709   1.403       .  A
C1708      H1713   1.084       .  S
C1709      C1710   1.413       .  A
C1710      N1711   1.438       .  S
N1711      H1715   1.046       .  S
N1711      H1716   1.046       .  S
N1714      H1717   1.042       .  S
N1714      H1718   1.045       .  S
C1719      C1720   1.401       .  A
C1719      C1724   1.398       .  A
C1719      H1726   1.084       .  S
C1720      C1721   1.416       .  A
C1721      C1722   1.400       .  A
C1721      N1728   1.438       .  S
C1722      C1723   1.402       .  A
C1722      H1727   1.084       .  S
C1723      C1724   1.416       .  A
C1724      N1725   1.438       .  S
N1725      H1729   1.045       .  S
N1725      H1730   1.044       .  S
N1728      H1731   1.042       .  S
N1728      H1732   1.045       .  S
C1733      C1734   1.402       .  A
C1733      C1738   1.402       .  A
C1733      H1740   1.084       .  S
C1734      C1735   1.418       .  A
C1735      C1736   1.402       .  A
C1735      N1742   1.439       .  S
C1736      C1737   1.403       .  A
C1736      H1741   1.084       .  S
C1737      C1738   1.411       .  A
C1738      N1739   1.438       .  S
N1739      H1743   1.046       .  S
N1739      H1744   1.046       .  S
N1742      H1745   1.042       .  S
N1742      H1746   1.046       .  S
C1747      C1748   1.404       .  A
C1747      C1752   1.404       .  A
C1747      H1754   1.084       .  S
C1748      C1749   1.410       .  A
C1749      C1750   1.402       .  A
C1749      N1756   1.438       .  S
C1750      C1751   1.405       .  A
C1750      H1755   1.084       .  S
C1751      C1752   1.419       .  A
C1752      N1753   1.439       .  S
N1753      H1757   1.046       .  S
N1753      H1758   1.041       .  S
N1756      H1759   1.045       .  S
N1756      H1760   1.046       .  S
C1761      C1762   1.404       .  A
C1761      C1766   1.406       .  A
C1761      H1768   1.084       .  S
C1762      C1763   1.412       .  A
C1763      C1764   1.395       .  A
C1763      N1770   1.433       .  S
C1764      C1765   1.406       .  A
C1764      H1769   1.084       .  S
C1765      C1766   1.410       .  A
C1766      N1767   1.432       .  S
N1767      H1771   1.045       .  S
N1767      H1772   1.046       .  S
N1770      H1773   1.045       .  S
N1770      H1774   1.044       .  S
C1775      C1776   1.400       .  A
C1775      C1780   1.402       .  A
C1775      H1782   1.084       .  S
C1776      C1777   1.412       .  A
C1777      C1778   1.410       .  A
C1777      N1784   1.437       .  S
C1778      C1779   1.405       .  A
C1778      H1783   1.083       .  S
C1779      C1780   1.417       .  A
C1780      N1781   1.439       .  S
N1781      H1785   1.046       .  S
N1781      H1786   1.045       .  S
N1784      H1787   1.045       .  S
N1784      H1788   1.046       .  S
C1789      C1790   1.405       .  A
C1789      C1794   1.408       .  A
C1789      H1796   1.084       .  S
C1790      C1791   1.416       .  A
C1791      C1792   1.398       .  A
C1791      N1798   1.440       .  S
C1792      C1793   1.405       .  A
C1792      H1797   1.084       .  S
C1793      C1794   1.412       .  A
C1794      N1795   1.437       .  S
N1795      H1799   1.046       .  S
N1795      H1800   1.046       .  S
N1798      H1801   1.042       .  S
N1798      H1802   1.046       .  S
C1803      C1804   1.403       .  A
C1803      C1808   1.402       .  A
C1803      H1810   1.084       .  S
C1804      C1805   1.412       .  A
C1805      C1806   1.397       .  A
C1805      N1812   1.433       .  S
C1806      C1807   1.406       .  A
C1806      H1811   1.084       .  S
C1807      C1808   1.416       .  A
C1808      N1809   1.433       .  S
N1809      H1813   1.043       .  S
N1809      H1814   1.045       .  S
N1812      H1815   1.045       .  S
N1812      H1816   1.044       .  S
C1817      C1818   1.408       .  A
C1817      C1822   1.407       .  A
C1817      H1824   1.083       .  S
C1818      C1819   1.409       .  A
C1819      C1820   1.397       .  A
C1819      N1826   1.432       .  S
C1820      C1821   1.405       .  A
C1820      H1825   1.084       .  S
C1821      C1822   1.409       .  A
C1822      N1823   1.432       .  S
N1823      H1827   1.045       .  S
N1823      H1828   1.046       .  S
N1826      H1829   1.046       .  S
N1826      H1830   1.045       .  S
C1831      C1832   1.403       .  A
C1831      C1836   1.403       .  A
C1831      H1838   1.084       .  S
C1832      C1833   1.414       .  A
C1833      C1834   1.406       .  A
C1833      N1840   1.437       .  S
C1834      C1835   1.402       .  A
C1834      H1839   1.084       .  S
C1835      C1836   1.412       .  A
C1836      N1837   1.438       .  S
N1837      H1841   1.046       .  S
N1837      H1842   1.046       .  S
N1840      H1843   1.046       .  S
N1840      H1844   1.046       .  S
C1845      C1846   1.406       .  A
C1845      C1850   1.404       .  A
C1845      H1852   1.084       .  S
C1846      C1847   1.415       .  A
C1847      C1848   1.397       .  A
C1847      N1854   1.440       .  S
C1848      C1849   1.404       .  A
C1848      H1853   1.085       .  S
C1849      C1850   1.417       .  A
C1850      N1851   1.439       .  S
N1851      H1855   1.046       .  S
N1851      H1856   1.042       .  S
N1854      H1857   1.042       .  S
N1854      H1858   1.046       .  S
C1859      C1860   1.402       .  A
C1859      C1864   1.398       .  A
C1859      H1866   1.084       .  S
C1860      C1861   1.415       .  A
C1861      C1862   1.397       .  A
C1861      N1868   1.432       .  S
C1862      C1863   1.402       .  A
C1862      H1867   1.084       .  S
C1863      C1864   1.416       .  A
C1864      N1865   1.438       .  S
N1865      H1869   1.046       .  S
N1865      H1870   1.043       .  S
N1868      H1871   1.046       .  S
N1868      H1872   1.043       .  S
C1873      C1874   1.402       .  A
C1873      C1878   1.400       .  A
C1873      H1880   1.084       .  S
C1874      C1875   1.418       .  A
C1875      C1876   1.402       .  A
C1875      N1882   1.432       .  S
C1876      C1877   1.403       .  A
C1876      H1881   1.084       .  S
C1877      C1878   1.420       .  A
C1878      N1879   1.438       .  S
N1879      H1883   1.046       .  S
N1879      H1884   1.043       .  S
N1882      H1885   1.045       .  S
N1882      H1886   1.043       .  S
C1887      C1888   1.401       .  A
C1887      C1892   1.399       .  A
C1887      H1894   1.084       .  S
C1888      C1889   1.417       .  A
C1889      C1890   1.403       .  A
C1889      N1896   1.439       .  S
C1890      C1891   1.403       .  A
C1890      H1895   1.084       .  S
C1891      C1892   1.419       .  A
C1892      N1893   1.440       .  S
N1893      H1897   1.046       .  S
N1893      H1898   1.043       .  S
N1896      H1899   1.042       .  S
N1896      H1900   1.046       .  S
C1901      C1902   1.404       .  A
C1901      C1906   1.403       .  A
C1901      H1908   1.084       .  S
C1902      C1903   1.412       .  A
C1903      C1904   1.396       .  A
C1903      N1910   1.433       .  S
C1904      C1905   1.406       .  A
C1904      H1909   1.084       .  S
C1905      C1906   1.416       .  A
C1906      N1907   1.432       .  S
N1907      H1911   1.044       .  S
N1907      H1912   1.045       .  S
N1910      H1913   1.045       .  S
N1910      H1914   1.044       .  S
C1915      C1916   1.401       .  A
C1915      C1920   1.397       .  A
C1915      H1922   1.084       .  S
C1916      C1917   1.416       .  A
C1917      C1918   1.401       .  A
C1917      N1924   1.438       .  S
C1918      C1919   1.403       .  A
C1918      H1923   1.084       .  S
C1919      C1920   1.416       .  A
C1920      N1921   1.438       .  S
N1921      H1925   1.045       .  S
N1921      H1926   1.044       .  S
N1924      H1927   1.042       .  S
N1924      H1928   1.045       .  S
C1929      C1930   1.402       .  A
C1929      C1934   1.399       .  A
C1929      H1936   1.084       .  S
C1930      C1931   1.416       .  A
C1931      C1932   1.399       .  A
C1931      N1938   1.432       .  S
C1932      C1933   1.402       .  A
C1932      H1937   1.084       .  S
C1933      C1934   1.418       .  A
C1934      N1935   1.438       .  S
N1935      H1939   1.046       .  S
N1935      H1940   1.043       .  S
N1938      H1941   1.045       .  S
N1938      H1942   1.043       .  S
C1943      C1944   1.402       .  A
C1943      C1948   1.401       .  A
C1943      H1950   1.084       .  S
C1944      C1945   1.415       .  A
C1945      C1946   1.401       .  A
C1945      N1952   1.439       .  S
C1946      C1947   1.402       .  A
C1946      H1951   1.084       .  S
C1947      C1948   1.415       .  A
C1948      N1949   1.439       .  S
N1949      H1953   1.046       .  S
N1949      H1954   1.043       .  S
N1952      H1955   1.043       .  S
N1952      H1956   1.046       .  S
C1957      C1958   1.404       .  A
C1957      C1962   1.409       .  A
C1957      H1964   1.084       .  S
C1958      C1959   1.408       .  A
C1959      C1960   1.401       .  A
C1959      N1966   1.438       .  S
C1960      C1961   1.408       .  A
C1960      H1965   1.084       .  S
C1961      C1962   1.414       .  A
C1962      N1963   1.437       .  S
N1963      H1967   1.046       .  S
N1963      H1968   1.045       .  S
N1966      H1969   1.045       .  S
N1966      H1970   1.046       .  S
C1971      C1972   1.401       .  A
C1971      C1976   1.399       .  A
C1971      H1978   1.084       .  S
C1972      C1973   1.416       .  A
C1973      C1974   1.399       .  A
C1973      N1980   1.432       .  S
C1974      C1975   1.402       .  A
C1974      H1979   1.084       .  S
C1975      C1976   1.418       .  A
C1976      N1977   1.438       .  S
N1977      H1981   1.046       .  S
N1977      H1982   1.043       .  S
N1980      H1983   1.045       .  S
N1980      H1984   1.043       .  S
C1985      C1986   1.406       .  A
C1985      C1990   1.401       .  A
C1985      H1992   1.084       .  S
C1986      C1987   1.414       .  A
C1987      C1988   1.407       .  A
C1987      N1994   1.438       .  S
C1988      C1989   1.402       .  A
C1988      H1993   1.084       .  S
C1989      C1990   1.409       .  A
C1990      N1991   1.438       .  S
N1991      H1995   1.046       .  S
N1991      H1996   1.045       .  S
N1994      H1997   1.045       .  S
N1994      H1998   1.046       .  S
C1999      C2000   1.401       .  A
C1999      C2004   1.397       .  A
C1999      H2006   1.084       .  S
C2000      C2001   1.417       .  A
C2001      C2002   1.403       .  A
C2001      N2008   1.438       .  S
C2002      C2003   1.403       .  A
C2002      H2007   1.084       .  S
C2003      C2004   1.418       .  A
C2004      N2005   1.438       .  S
N2005      H2009   1.045       .  S
N2005      H2010   1.043       .  S
N2008      H2011   1.043       .  S
N2008      H2012   1.045       .  S
C2013      C2014   1.400       .  A
C2013      C2018   1.400       .  A
C2013      H2020   1.084       .  S
C2014      C2015   1.415       .  A
C2015      C2016   1.403       .  A
C2015      N2022   1.439       .  S
C2016      C2017   1.402       .  A
C2016      H2021   1.084       .  S
C2017      C2018   1.416       .  A
C2018      N2019   1.440       .  S
N2019      H2023   1.046       .  S
N2019      H2024   1.043       .  S
N2022      H2025   1.043       .  S
N2022      H2026   1.046       .  S
C2027      C2028   1.403       .  A
C2027      C2032   1.402       .  A
C2027      H2034   1.084       .  S
C2028      C2029   1.412       .  A
C2029      C2030   1.397       .  A
C2029      N2036   1.433       .  S
C2030      C2031   1.406       .  A
C2030      H2035   1.084       .  S
C2031      C2032   1.416       .  A
C2032      N2033   1.432       .  S
N2033      H2037   1.043       .  S
N2033      H2038   1.045       .  S
N2036      H2039   1.045       .  S
N2036      H2040   1.044       .  S
C2041      C2042   1.403       .  A
C2041      C2046   1.399       .  A
C2041      H2048   1.083       .  S
C2042      C2043   1.413       .  A
C2043      C2044   1.404       .  A
C2043      N2050   1.431       .  S
C2044      C2045   1.404       .  A
C2044      H2049   1.084       .  S
C2045      C2046   1.411       .  A
C2046      N2047   1.433       .  S
N2047      H2051   1.045       .  S
N2047      H2052   1.046       .  S
N2050      H2053   1.046       .  S
N2050      H2054   1.046       .  S
C2055      C2056   1.404       .  A
C2055      C2060   1.410       .  A
C2055      H2062   1.084       .  S
C2056      C2057   1.410       .  A
C2057      C2058   1.401       .  A
C2057      N2064   1.438       .  S
C2058      C2059   1.407       .  A
C2058      H2063   1.083       .  S
C2059      C2060   1.416       .  A
C2060      N2061   1.437       .  S
N2061      H2065   1.046       .  S
N2061      H2066   1.045       .  S
N2064      H2067   1.045       .  S
N2064      H2068   1.046       .  S
C2069      C2070   1.401       .  A
C2069      C2074   1.402       .  A
C2069      H2076   1.084       .  S
C2070      C2071   1.414       .  A
C2071      C2072   1.408       .  A
C2071      N2078   1.437       .  S
C2072      C2073   1.403       .  A
C2072      H2077   1.084       .  S
C2073      C2074   1.414       .  A
C2074      N2075   1.438       .  S
N2075      H2079   1.046       .  S
N2075      H2080   1.045       .  S
N2078      H2081   1.045       .  S
N2078      H2082   1.046       .  S
C2083      C2084   1.400       .  A
C2083      C2088   1.397       .  A
C2083      H2090   1.084       .  S
C2084      C2085   1.412       .  A
C2085      C2086   1.402       .  A
C2085      N2092   1.432       .  S
C2086      C2087   1.405       .  A
C2086      H2091   1.084       .  S
C2087      C2088   1.418       .  A
C2088      N2089   1.434       .  S
N2089      H2093   1.043   1_655  S
N2089      H2094   1.045       .  S
N2092      H2095   1.045       .  S
N2092      H2096   1.045       .  S
C2097      C2098   1.408       .  A
C2097      C2102   1.406       .  A
C2097      H2104   1.083       .  S
C2098      C2099   1.411       .  A
C2099      C2100   1.399       .  A
C2099      N2106   1.432       .  S
C2100      C2101   1.406       .  A
C2100      H2105   1.084       .  S
C2101      C2102   1.411       .  A
C2102      N2103   1.432       .  S
N2103      H2107   1.045       .  S
N2103      H2108   1.046       .  S
N2106      H2109   1.047       .  S
N2106      H2110   1.045       .  S
C2111      C2112   1.401       .  A
C2111      C2116   1.399       .  A
C2111      H2118   1.084       .  S
C2112      C2113   1.412       .  A
C2113      C2114   1.407       .  A
C2113      N2120   1.437       .  S
C2114      C2115   1.404       .  A
C2114      H2119   1.083       .  S
C2115      C2116   1.412       .  A
C2116      N2117   1.433       .  S
N2117      H2121   1.045       .  S
N2117      H2122   1.046       .  S
N2120      H2123   1.044       .  S
N2120      H2124   1.045       .  S
C2125      C2126   1.402       .  A
C2125      C2130   1.402       .  A
C2125      H2132   1.084       .  S
C2126      C2127   1.414       .  A
C2127      C2128   1.397       .  A
C2127      N2134   1.438       .  S
C2128      C2129   1.404       .  A
C2128      H2133   1.085       .  S
C2129      C2130   1.418       .  A
C2130      N2131   1.438       .  S
N2131      H2135   1.045       .  S
N2131      H2136   1.042       .  S
N2134      H2137   1.043       .  S
N2134      H2138   1.046       .  S
C2139      C2140   1.400       .  A
C2139      C2144   1.401       .  A
C2139      H2146   1.084       .  S
C2140      C2141   1.408       .  A
C2141      C2142   1.401       .  A
C2141      N2148   1.438       .  S
C2142      C2143   1.403       .  A
C2142      H2147   1.084       .  S
C2143      C2144   1.420       .  A
C2144      N2145   1.440       .  S
N2145      H2149   1.046       .  S
N2145      H2150   1.040       .  S
N2148      H2151   1.046       .  S
N2148      H2152   1.046       .  S
C2153      C2154   1.404       .  A
C2153      C2158   1.404       .  A
C2153      H2160   1.084       .  S
C2154      C2155   1.413       .  A
C2155      C2156   1.396       .  A
C2155      N2162   1.433       .  S
C2156      C2157   1.406       .  A
C2156      H2161   1.084       .  S
C2157      C2158   1.416       .  A
C2158      N2159   1.432       .  S
N2159      H2163   1.043       .  S
N2159      H2164   1.045       .  S
N2162      H2165   1.045       .  S
N2162      H2166   1.044       .  S
C2167      C2168   1.401       .  A
C2167      C2172   1.400       .  A
C2167      H2174   1.084       .  S
C2168      C2169   1.418       .  A
C2169      C2170   1.404       .  A
C2169      N2176   1.439       .  S
C2170      C2171   1.404       .  A
C2170      H2175   1.084       .  S
C2171      C2172   1.419       .  A
C2172      N2173   1.440       .  S
N2173      H2177   1.046       .  S
N2173      H2178   1.043   1_655  S
N2176      H2179   1.042       .  S
N2176      H2180   1.046       .  S
C2181      C2182   1.401       .  A
C2181      C2186   1.397       .  A
C2181      H2188   1.084       .  S
C2182      C2183   1.417       .  A
C2183      C2184   1.401       .  A
C2183      N2190   1.438       .  S
C2184      C2185   1.403       .  A
C2184      H2189   1.084       .  S
C2185      C2186   1.417       .  A
C2186      N2187   1.438       .  S
N2187      H2191   1.045       .  S
N2187      H2192   1.043       .  S
N2190      H2193   1.042       .  S
N2190      H2194   1.045       .  S
C2195      C2196   1.401       .  A
C2195      C2200   1.400       .  A
C2195      H2202   1.084       .  S
C2196      C2197   1.416       .  A
C2197      C2198   1.402       .  A
C2197      N2204   1.439       .  S
C2198      C2199   1.402       .  A
C2198      H2203   1.084       .  S
C2199      C2200   1.417       .  A
C2200      N2201   1.440       .  S
N2201      H2205   1.046       .  S
N2201      H2206   1.043       .  S
N2204      H2207   1.043       .  S
N2204      H2208   1.046       .  S
