geometry optimzed in LAMMPS
_audit_creation_date              2020-11-30 
_audit_creation_method            'lammps2cif' 
_symmetry_space_group_name_H-M    'P1' 
_symmetry_Int_Tables_number       1 
_symmetry_cell_setting            triclinic 
loop_ 
_symmetry_equiv_pos_as_xyz 
  x,y,z 
_cell_length_a                    24.81369329 
_cell_length_b                    24.01277261992079 
_cell_length_c                    23.83577155205214 
_cell_angle_alpha                 89.45386890002726 
_cell_angle_beta                  89.47571505087785 
_cell_angle_gamma                 89.02485119615632 
loop_ 
_atom_site_label 
_atom_site_type_symbol 
_atom_site_fract_x 
_atom_site_fract_y 
_atom_site_fract_z 
_atom_site_charge 
C1          C  0.10582994  0.10790273  0.10825592     0.45600
H2          H  0.08394493  0.08044227  0.07930407    -0.03400
C3          C  0.15766922  0.16997504  0.17526150     0.45600
H4          H  0.17514037  0.19467245  0.20803103    -0.03400
C5          C  0.07292024  0.16272888  0.12172645    -0.17100
C6          C  0.11688061  0.07857880  0.16669830    -0.16900
C7          C  0.16271148  0.12704601  0.08300785    -0.17300
C8          C  0.09935940  0.19470936  0.16137283    -0.17200
C9          C  0.15110903  0.10924149  0.19930686    -0.16800
C10         C  0.18955887  0.16540863  0.11731403    -0.17100
C11         C  0.92635096  0.60645846  0.43620420     0.45600
H12         H  0.94573311  0.57603738  0.46459688    -0.03400
C13         C  0.87333385  0.67356448  0.37124240     0.45600
H14         H  0.85324938  0.70329455  0.34276346    -0.03400
C15         C  0.90719534  0.57769358  0.37988447    -0.17100
C16         C  0.87257276  0.63143289  0.46501283    -0.16900
C17         C  0.96315655  0.65796706  0.41666913    -0.17300
C18         C  0.87287059  0.61209213  0.34863255    -0.17200
C19         C  0.84730666  0.67086877  0.43084372    -0.16800
C20         C  0.93322258  0.69172451  0.37982050    -0.17100
C21         C  0.91316860  0.25654360  0.95368446    -0.02300
C22         C  0.78101435  0.48152793  0.63350144    -0.02300
C23         C  0.55113480  0.12544449  0.75457355    -0.02300
Zr24       Zr  0.93521857  0.03011388  0.47479028     2.17500
O25         O  0.99749459  0.04413957  0.39594868    -0.51200
O26         O  0.93772183  0.93061568  0.48253309    -0.74400
O27         O  0.02899162  0.01819830  0.49914957    -0.81200
O28         O  0.80870706  0.02280632  0.38816982    -0.82900
O29         O  0.04632365  0.06682168  0.57843093    -0.78600
O30         O  0.89899923  0.00526514  0.38566070    -0.90200
O31         O  0.92161612  0.91955332  0.57433136    -0.76100
O32         O  0.93546751  0.00932659  0.57259638    -0.85600
O33         O  0.84601639  0.00050234  0.49661718    -0.85300
O34         O  0.96242405  0.11328334  0.51987540    -0.72100
O35         O  0.87900484  0.10665902  0.44637921    -0.84200
Zr36       Zr  0.81822260  0.14312163  0.61669335     2.26400
Zr37       Zr  0.96066166  0.09186751  0.61883824     2.06300
Zr38       Zr  0.79027165  0.07967637  0.47236905     2.10000
Zr39       Zr  0.84631636  0.98215171  0.59505309     1.78800
O40         O  0.77088198  0.15881476  0.41070436    -0.93000
O41         O  0.83114363  0.88759338  0.62976821    -0.40800
O42         O  0.78929223  0.05944513  0.57192291    -0.77500
O43         O  0.87170939  0.06379760  0.64405929    -0.96200
O44         O  0.90652376  0.17021516  0.59229171    -0.89500
O45         O  0.81607040  0.16391682  0.51795993    -0.92300
C46         C  0.94628977  0.90577630  0.52898703     1.01500
C47         C  0.85199038  0.00393090  0.36429043     1.14400
C48         C  0.06075602  0.04011993  0.53452130     1.05200
O49         O  0.00109823  0.02193061  0.68073875    -0.94500
O50         O  0.94081989  0.12414204  0.71338427    -0.90200
O51         O  0.85361938  0.15499068  0.71057063    -0.83300
C52         C  0.89854417  0.14618770  0.73590433     1.11800
O53         O  0.95087708  0.19567568  0.40288661    -0.96400
Zr54       Zr  0.90521611  0.18893743  0.49375630     1.88900
O55         O  0.82974380  0.24211081  0.62148138    -0.73100
O56         O  0.02427423  0.16413749  0.64199062    -0.52300
O57         O  0.99045010  0.23709463  0.49955490    -0.97000
O58         O  0.85560595  0.25701978  0.43674070    -0.54200
O59         O  0.88431445  0.26841394  0.54985022    -0.73600
C60         C  0.85677462  0.27840317  0.59427013     0.98700
O61         O  0.75465783  0.14626326  0.69543593    -0.62400
O62         O  0.70749905  0.05089836  0.42649891    -0.57200
O63         O  0.72942463  0.16330299  0.58173452    -0.93900
O64         O  0.71082950  0.08689201  0.53252384    -0.92300
O65         O  0.75828200  0.95303747  0.56495234    -0.92700
O66         O  0.82300624  0.97296909  0.69448056    -0.91500
C67         C  0.69731469  0.12557609  0.56676572     1.17600
H68         H  0.83643299  0.96759590  0.47628839     0.33500
H69         H  0.86951052  0.05679000  0.68383995     0.44400
H70         H  0.79188284  0.19475478  0.50952042     0.37900
H71         H  0.99795153  0.12356129  0.50717923     0.34400
H72         H  0.83473778  0.86325982  0.59662099     0.26200
H73         H  0.00173708  0.19684930  0.65264560     0.32100
H74         H  0.00329139  0.22892347  0.53800281     0.38000
H75         H  0.73603655  0.95333163  0.59965107     0.32500
H76         H  0.67955629  0.07936080  0.43569795     0.31400
H77         H  0.73313233  0.16974613  0.41951748     0.33000
H78         H  0.84754720  0.23781316  0.40131873     0.32000
H79         H  0.78323638  0.97709391  0.69588607     0.36000
H80         H  0.73213505  0.18022849  0.68958039     0.28700
H81         H  0.02495734  0.07026162  0.40924941     0.33000
H82         H  0.92641633  0.17837333  0.37573262     0.35800
H83         H  0.71374434  0.05660903  0.38578937     0.28400
H84         H  0.73012346  0.11479587  0.68982301     0.41300
H85         H  0.97794038  0.98898648  0.67723608     0.31400
H86         H  0.86274164  0.87772547  0.65318154     0.39000
H87         H  0.88256439  0.28525505  0.42603276     0.30800
H88         H  0.04123793  0.15137164  0.67739110     0.30900
H89         H  0.97694050  0.06664649  0.36820365     0.31200
C90         C  0.67000993  0.35851763  0.87537035     0.45600
H91         H  0.69944126  0.33562989  0.84902547    -0.03400
C92         C  0.60423331  0.41518829  0.93717127     0.45600
H93         H  0.57523519  0.43696194  0.96478751    -0.03400
C94         C  0.66030177  0.41882955  0.85080438    -0.17100
C95         C  0.61280374  0.33035074  0.88121349    -0.16900
C96         C  0.69227774  0.36592379  0.93613374    -0.17300
C97         C  0.62041349  0.44806806  0.88091075    -0.17200
C98         C  0.57900268  0.35885128  0.91780376    -0.16800
C99         C  0.65888349  0.40006401  0.96934521    -0.17100
C100        C  0.28177315  0.97606822  0.92056958    -0.02300
C101        C  0.47550645  0.61157760  0.76657536    -0.02300
C102        C  0.13209132  0.75278881  0.54959967    -0.02300
Zr103      Zr  0.14328395  0.69288591  0.86898528     2.17500
O104        O  0.13229463  0.78407892  0.82456426    -0.51200
O105        O  0.22819258  0.69862088  0.82152469    -0.74400
O106        O  0.14860617  0.73968758  0.95513562    -0.81200
O107        O  0.12859373  0.58164636  0.76472530    -0.82900
O108        O  0.15599387  0.77981084  0.03253167    -0.78600
O109        O  0.09050331  0.66269450  0.79108750    -0.90200
O110        O  0.26088040  0.67882651  0.90449967    -0.76100
O111        O  0.19069151  0.67803067  0.95595523    -0.85600
O112        O  0.18713466  0.60246641  0.86335867    -0.85300
O113        O  0.07896925  0.70236759  0.94619149    -0.72100
O114        O  0.07480124  0.62541332  0.85792159    -0.84200
Zr115      Zr  0.09994530  0.52894446  0.00705256     2.26400
Zr116      Zr  0.12804859  0.68345343  0.03523173     2.06300
Zr117      Zr  0.11888111  0.53546701  0.85268388     2.10000
Zr118      Zr  0.23593925  0.59141416  0.94804298     1.78800
O119        O  0.06497431  0.49854784  0.77719446    -0.93000
O120        O  0.30990386  0.62633529  0.00354161    -0.40800
O121        O  0.16838624  0.52232468  0.93640015    -0.77500
O122        O  0.17194309  0.59252493  0.02400180    -0.96200
O123        O  0.05757891  0.61817025  0.01727701    -0.89500
O124        O  0.05175016  0.54466974  0.92278759    -0.92300
C125        C  0.26756615  0.68358571  0.85170546     1.01500
C126        C  0.11099710  0.63050504  0.75402343     1.14400
C127        C  0.16312290  0.78247889  0.98039921     1.05200
O128        O  0.20025679  0.71117682  0.09697473    -0.94500
O129        O  0.12927961  0.63938343  0.12810130    -0.90200
O130        O  0.07518903  0.59293042  0.07898694    -0.83300
C131        C  0.10222598  0.59575956  0.12334739     1.11800
O132        O  0.97155360  0.70956709  0.87494007    -0.96400
Zr133      Zr  0.01114608  0.63455599  0.93147097     1.88900
O134        O  0.00655977  0.50191628  0.02064810    -0.73100
O135        O  0.04968760  0.73434450  0.07151698    -0.52300
O136        O  0.95235757  0.68662655  0.99539184    -0.97000
O137        O  0.94876946  0.60775163  0.85839486    -0.54200
O138        O  0.95461510  0.56762678  0.97606416    -0.73600
C139        C  0.96102899  0.52406900  0.00653849     0.98700
O140        O  0.15017030  0.46718954  0.07092559    -0.62400
O141        O  0.19156318  0.47373045  0.82098763    -0.57200
O142        O  0.10474745  0.43682687  0.97161975    -0.93900
O143        O  0.08013865  0.44773675  0.88136842    -0.92300
O144        O  0.29388371  0.54347263  0.88037077    -0.92700
O145        O  0.28387391  0.52361780  0.00684022    -0.91500
C146        C  0.08070021  0.42081762  0.92802134     1.17600
H147        H  0.21052702  0.59820832  0.83142903     0.33500
H148        H  0.19086359  0.58171891  0.05774755     0.44400
H149        H  0.02350214  0.51842805  0.91648689     0.37900
H150        H  0.05891484  0.73757084  0.94564037     0.34400
H151        H  0.34094776  0.62745040  0.97718015     0.26200
H152        H  0.03793141  0.75975151  0.04089995     0.32100
H153        H  0.92845143  0.71002548  0.97156486     0.38000
H154        H  0.28414423  0.50378197  0.88387557     0.32500
H155        H  0.17909149  0.43577205  0.83031376     0.31400
H156        H  0.02725746  0.50769858  0.78797735     0.33000
H157        H  0.91639912  0.59395243  0.87833207     0.32000
H158        H  0.31819472  0.51521972  0.98689789     0.36000
H159        H  0.13187514  0.43085395  0.07127621     0.28700
H160        H  0.12653468  0.77603639  0.78443171     0.33000
H161        H  0.00263809  0.72777739  0.85653288     0.35800
H162        H  0.19006684  0.47591680  0.77952836     0.28400
H163        H  0.18489146  0.45989166  0.05131514     0.41300
H164        H  0.22968033  0.68368961  0.08993380     0.31400
H165        H  0.30047542  0.66598357  0.01016601     0.39000
H166        H  0.96548645  0.57413867  0.84137217     0.30800
H167        H  0.02084423  0.70655791  0.07507252     0.30900
H168        H  0.16856350  0.80057924  0.82569731     0.31200
C169        C  0.39816753  0.29756871  0.06719567    -0.02300
C170        C  0.26016205  0.05047684  0.40909513    -0.02300
C171        C  0.05846564  0.41343096  0.28105831    -0.02300
Zr172      Zr  0.36869611  0.39934607  0.33836860     2.17500
O173        O  0.35489386  0.32526689  0.27095169    -0.51200
O174        O  0.27332151  0.41583320  0.35519296    -0.74400
O175        O  0.33525043  0.30984020  0.36772439    -0.81200
O176        O  0.42429051  0.49820668  0.22580158    -0.82900
O177        O  0.35961978  0.29670233  0.45900805    -0.78600
O178        O  0.35996349  0.43357650  0.24226905    -0.90200
O179        O  0.26091194  0.48010147  0.42335529    -0.76100
O180        O  0.34361547  0.42443206  0.43096973    -0.85600
O181        O  0.37015731  0.49843126  0.33885510    -0.85300
O182        O  0.43423639  0.35342049  0.39730396    -0.72100
O183        O  0.45974587  0.42181968  0.31312208    -0.84200
Zr184      Zr  0.50116886  0.49941699  0.46620102     2.26400
Zr185      Zr  0.40693758  0.37909176  0.49092144     2.06300
Zr186      Zr  0.46132138  0.52217452  0.31599882     2.10000
Zr187      Zr  0.34648844  0.52332347  0.43237968     1.78800
O188        O  0.54285536  0.52907380  0.25887529    -0.93000
O189        O  0.30298157  0.53545863  0.52366514    -0.40800
O190        O  0.43662734  0.54776783  0.40921290    -0.77500
O191        O  0.41037360  0.47964684  0.49304936    -0.96200
O192        O  0.49762657  0.40113612  0.46634388    -0.89500
O193        O  0.52737460  0.47516217  0.37308096    -0.92300
C194        C  0.24378861  0.44306384  0.39033186     1.01500
C195        C  0.38716060  0.46564853  0.20956194     1.14400
C196        C  0.33809097  0.28077331  0.41296998     1.05200
O197        O  0.32578162  0.36996464  0.54821103    -0.94500
O198        O  0.43200612  0.41636286  0.58221188    -0.90200
O199        O  0.51117419  0.44835294  0.55316194    -0.83300
C200        C  0.47525272  0.44314833  0.59132341     1.11800
O201        O  0.52054385  0.30050989  0.30802778    -0.96400
Zr202      Zr  0.52479978  0.37694015  0.37436225     1.88900
O203        O  0.59220610  0.46966727  0.48170197    -0.73100
O204        O  0.45158623  0.30207043  0.54007409    -0.52300
O205        O  0.54868782  0.28491836  0.41136170    -0.97000
O206        O  0.59609100  0.39286541  0.30536431    -0.54200
O207        O  0.60237031  0.38632961  0.43775454    -0.73600
C208        C  0.61775644  0.42393468  0.47207291     0.98700
O209        O  0.49683894  0.57867517  0.52868430    -0.62400
O210        O  0.42517288  0.60156426  0.26329199    -0.57200
O211        O  0.55418197  0.56527068  0.41542341    -0.93900
O212        O  0.49694263  0.60748634  0.35696971    -0.92300
O213        O  0.29732549  0.58945139  0.37273422    -0.92700
O214        O  0.34710532  0.61805380  0.46809401    -0.91500
C215        C  0.53423111  0.60942738  0.39375646     1.17600
H216        H  0.34513393  0.51437356  0.31213787     0.33500
H217        H  0.40263251  0.49477219  0.52964314     0.44400
H218        H  0.56361696  0.48530931  0.36252746     0.37900
H219        H  0.43380063  0.31360660  0.39256654     0.34400
H220        H  0.26725597  0.55240357  0.51523497     0.26200
H221        H  0.48703468  0.31662834  0.55098512     0.32100
H222        H  0.58811549  0.28106017  0.40538344     0.38000
H223        H  0.27015964  0.56729750  0.35305383     0.32500
H224        H  0.40343936  0.62290565  0.29101698     0.31400
H225        H  0.54265576  0.49560402  0.23493546     0.33000
H226        H  0.57953606  0.38541482  0.26860766     0.32000
H227        H  0.38371712  0.62261173  0.48332546     0.36000
H228        H  0.48249054  0.60963384  0.50522299     0.28700
H229        H  0.32096599  0.33542334  0.25153625     0.33000
H230        H  0.48171832  0.29687292  0.29982889     0.35800
H231        H  0.45659644  0.62522174  0.25498362     0.28400
H232        H  0.46630123  0.56979484  0.55379345     0.41300
H233        H  0.33302037  0.33713555  0.57261086     0.31400
H234        H  0.29488695  0.49716139  0.53658436     0.39000
H235        H  0.62201978  0.36159283  0.31119241     0.30800
H236        H  0.43137625  0.29839625  0.57588776     0.30900
H237        H  0.38354338  0.32917942  0.24216105     0.31200
C238        C  0.36532714  0.86043531  0.66526717     0.45600
H239        H  0.33911326  0.83371163  0.69176071    -0.03400
C240        C  0.42711999  0.92273658  0.60468632     0.45600
H241        H  0.45060176  0.95118964  0.57774518    -0.03400
C242        C  0.34445762  0.86660277  0.60290351    -0.17100
C243        C  0.36951182  0.92168361  0.68900879    -0.16900
C244        C  0.42530658  0.83647567  0.66129041    -0.17300
C245        C  0.37572069  0.90363625  0.57218061    -0.17200
C246        C  0.40621679  0.95334598  0.65816099    -0.16800
C247        C  0.45868238  0.86874486  0.62648023    -0.17100
C248        C  0.98107212  0.88429515  0.23298412    -0.02300
C249        C  0.64489620  0.80280395  0.48734359    -0.02300
C250        C  0.76546369  0.55188045  0.12456235    -0.02300
Zr251      Zr  0.70559459  0.90811772  0.18467534     2.17500
O252        O  0.71949582  0.84266561  0.26236597    -0.51200
O253        O  0.80068654  0.89891396  0.16317064    -0.74400
O254        O  0.70760566  0.81201433  0.15214655    -0.81200
O255        O  0.63889155  0.00000250  0.29289684    -0.82900
O256        O  0.69047413  0.81145282  0.05842750    -0.78600
O257        O  0.70808911  0.93880550  0.28142362    -0.90200
O258        O  0.82147220  0.95512468  0.08947247    -0.76100
O259        O  0.73102484  0.92929146  0.09166092    -0.85600
O260        O  0.72696065  0.00501682  0.18397465    -0.85300
O261        O  0.63007060  0.88207925  0.12905071    -0.72100
O262        O  0.62549014  0.95699842  0.21211280    -0.84200
Zr263      Zr  0.59455519  0.04708979  0.06068825     2.26400
Zr264      Zr  0.65840900  0.90398981  0.03439355     2.06300
Zr265      Zr  0.64476997  0.05435096  0.20876517     2.10000
Zr266      Zr  0.75069554  0.02530770  0.08901585     1.78800
O267        O  0.61974062  0.10207119  0.29545197    -0.93000
O268        O  0.78762058  0.03038004  0.99409916    -0.40800
O269        O  0.66964736  0.07522191  0.11485244    -0.77500
O270        O  0.67707312  0.00292051  0.03033192    -0.96200
O271        O  0.57696130  0.95004469  0.06386107    -0.89500
O272        O  0.56919092  0.02749005  0.15485444    -0.92300
C273        C  0.83184574  0.91446888  0.12293793     1.01500
C274        C  0.67048436  0.96175707  0.31098290     1.14400
C275        C  0.70286853  0.78725169  0.10479109     1.05200
O276        O  0.73549327  0.88161581  0.97434618    -0.94500
O277        O  0.63833595  0.94358064  0.94365577    -0.90200
O278        O  0.57111987  0.98536624  0.98632093    -0.83300
C279        C  0.60076860  0.98005115  0.94308473     1.11800
O280        O  0.54518556  0.86351319  0.23462982    -0.96400
Zr281      Zr  0.55131212  0.93102892  0.15792265     1.88900
O282        O  0.49848975  0.04077006  0.05080069    -0.73100
O283        O  0.59619980  0.84022393  0.99095694    -0.52300
O284        O  0.50989864  0.84421138  0.13100009    -0.97000
O285        O  0.48365767  0.95777533  0.22786365    -0.54200
O286        O  0.47829854  0.96287439  0.10029608    -0.73600
C287        C  0.46617170  0.00220185  0.06604290     0.98700
O288        O  0.61139247  0.12071942  0.99184384    -0.62400
O289        O  0.72177029  0.11459345  0.22219921    -0.57200
O290        O  0.55816905  0.13021078  0.10189896    -0.93900
O291        O  0.57896584  0.13003584  0.19475132    -0.92300
O292        O  0.82833096  0.06278533  0.13672616    -0.92700
O293        O  0.76134752  0.12394478  0.06950805    -0.91500
C294        C  0.55345077  0.14889473  0.15178441     1.17600
H295        H  0.75613114  0.01235315  0.20930837     0.33500
H296        H  0.68630604  0.01561213  0.99300177     0.44400
H297        H  0.53597144  0.04583607  0.16560832     0.37900
H298        H  0.61992723  0.84365879  0.13306576     0.34400
H299        H  0.82620915  0.03857237  0.99934978     0.26200
H300        H  0.57553559  0.82431804  0.02281553     0.32100
H301        H  0.50245618  0.84878668  0.09048805     0.38000
H302        H  0.85878919  0.05817473  0.10992417     0.32500
H303        H  0.70666777  0.15300575  0.22043914     0.31400
H304        H  0.64585367  0.13228040  0.30026259     0.33000
H305        H  0.44850884  0.95303082  0.20935191     0.32000
H306        H  0.75030935  0.14289778  0.10459592     0.36000
H307        H  0.63552088  0.10391828  0.96313957     0.28700
H308        H  0.74930305  0.81743761  0.25045692     0.33000
H309        H  0.57486863  0.87256785  0.26029554     0.35800
H310        H  0.73250407  0.10896284  0.26178990     0.28400
H311        H  0.57676521  0.12780658  0.97270709     0.41300
H312        H  0.72179574  0.85421314  0.94742039     0.31400
H313        H  0.78767564  0.99145197  0.98074200     0.39000
H314        H  0.48690916  0.99840743  0.23279409     0.30800
H315        H  0.56967870  0.86413251  0.97086020     0.30900
H316        H  0.68707579  0.81919541  0.26318625     0.31200
C317        C  0.74442960  0.61192620  0.10764270     0.00000
C318        C  0.70781105  0.63576637  0.14740811    -0.11900
C319        C  0.69241707  0.69176473  0.14631161     0.02200
C320        C  0.71197960  0.72662304  0.10370453    -0.00100
C321        C  0.74471030  0.70418887  0.06152437    -0.11800
C322        C  0.76292655  0.64865656  0.06357185     0.02100
H323        H  0.69203774  0.60995970  0.18119635     0.15100
H324        H  0.76016208  0.73197836  0.02915135     0.15100
C325        C  0.80508507  0.63707971  0.02320176     0.36700
C326        C  0.65595918  0.71230258  0.18925200     0.36600
N327        N  0.83888934  0.63194268  0.98973418    -0.43600
N328        N  0.62672780  0.72901621  0.22348757    -0.43600
C329        C  0.65087706  0.85434794  0.44767202     0.00000
C330        C  0.60453331  0.88146027  0.42568129    -0.11900
C331        C  0.60896061  0.92286216  0.38468513     0.02200
C332        C  0.66063131  0.93851443  0.36627643    -0.00100
C333        C  0.70547968  0.92130563  0.39595681    -0.11800
C334        C  0.70128719  0.88165630  0.43780529     0.02100
H335        H  0.56471908  0.86893613  0.43949948     0.15100
H336        H  0.74455716  0.93771718  0.38474803     0.15100
C337        C  0.74992518  0.87307005  0.46951202     0.36700
C338        C  0.56015477  0.94644734  0.36131339     0.36600
N339        N  0.79026937  0.86766638  0.49297554    -0.43600
N340        N  0.52046337  0.96545554  0.34395516    -0.43600
C341        C  0.88341541  0.88494959  0.11704189     0.00000
C342        C  0.92921007  0.91497111  0.10245823    -0.11900
C343        C  0.97812852  0.89884417  0.12643753     0.02200
C344        C  0.97743635  0.86042936  0.17216650    -0.00100
C345        C  0.93965141  0.81778800  0.16498425    -0.11800
C346        C  0.89087747  0.83090603  0.13931061     0.02100
H347        H  0.92671416  0.95120972  0.07508170     0.15100
H348        H  0.94067871  0.78003741  0.18970892     0.15100
C349        C  0.84759492  0.79225468  0.14577162     0.36700
C350        C  0.02630638  0.90767637  0.09371734     0.36600
N351        N  0.81434065  0.76017317  0.15435608    -0.43600
N352        N  0.06463521  0.91377179  0.06646750    -0.43600
C353        C  0.51862733  0.85577161  0.60772761     0.00000
C354        C  0.54785731  0.89608165  0.57726629    -0.11900
C355        C  0.59787690  0.88368966  0.55056194     0.02200
C356        C  0.61679824  0.82687705  0.54391318    -0.00100
C357        C  0.59471258  0.79134377  0.58513731    -0.11800
C358        C  0.55081095  0.80729183  0.62051757     0.02100
H359        H  0.53409821  0.93892235  0.57665134     0.15100
H360        H  0.61827920  0.75580289  0.59784637     0.15100
C361        C  0.56288601  0.79280273  0.67760982     0.36700
C362        C  0.62910780  0.93155707  0.53423809     0.36600
N363        N  0.57976834  0.78241687  0.72167174    -0.43600
N364        N  0.65211777  0.97107500  0.52077323    -0.43600
C365        C  0.60620915  0.75604361  0.46519570     0.00000
C366        C  0.57903201  0.75960085  0.41250021    -0.11900
C367        C  0.55304045  0.71395486  0.38871185     0.02200
C368        C  0.55417226  0.66231553  0.41656131    -0.00100
C369        C  0.57943607  0.65828416  0.46847101    -0.11800
C370        C  0.60680734  0.70189306  0.49140191     0.02100
H371        H  0.58208583  0.79509063  0.38517688     0.15100
H372        H  0.58217514  0.61838287  0.49008294     0.15100
C373        C  0.64327560  0.68346759  0.53511827     0.36700
C374        C  0.52970921  0.72033391  0.33369343     0.36600
N375        N  0.67190865  0.66591721  0.56931428    -0.43600
N376        N  0.51120672  0.72582457  0.28955205    -0.43600
C377        C  0.09232376  0.41283491  0.33559625     0.00000
C378        C  0.09803855  0.46300800  0.36539618    -0.11900
C379        C  0.14682550  0.47331309  0.39168863     0.02200
C380        C  0.18651143  0.43072857  0.39179671    -0.00100
C381        C  0.17134036  0.37595887  0.38186017    -0.11800
C382        C  0.12240798  0.36618077  0.35623881     0.02100
H383        H  0.07087680  0.49798834  0.35737178     0.15100
H384        H  0.19944488  0.34170501  0.38945353     0.15100
C385        C  0.10539619  0.30917547  0.35190336     0.36700
C386        C  0.15890474  0.53001654  0.40600792     0.36600
N387        N  0.09146336  0.26356425  0.34894589    -0.43600
N388        N  0.16895353  0.57553386  0.41677356    -0.43600
C389        C  0.35240107  0.94085774  0.52552014     0.00000
C390        C  0.35357089  0.92678414  0.46757246    -0.11900
C391        C  0.32832068  0.96167043  0.42567701     0.02200
C392        C  0.30371597  0.01324343  0.44118236    -0.00100
C393        C  0.31228056  0.02993162  0.49705323    -0.11800
C394        C  0.33090438  0.99393394  0.53869093     0.02100
H395        H  0.37239189  0.88790395  0.45502940     0.15100
H396        H  0.29711116  0.07039945  0.51031710     0.15100
C397        C  0.32153046  0.01325463  0.59481451     0.36700
C398        C  0.32476109  0.94173195  0.36904717     0.36600
N399        N  0.31185218  0.03322808  0.63775752    -0.43600
N400        N  0.32148951  0.92535482  0.32371456    -0.43600
C401        C  0.28107386  0.11233208  0.40564586     0.00000
C402        C  0.33611487  0.12376619  0.41527663    -0.11900
C403        C  0.35460158  0.17810463  0.41936482     0.02200
C404        C  0.31914226  0.22330155  0.40998715    -0.00100
C405        C  0.26675189  0.21327685  0.39236434    -0.11800
C406        C  0.24742238  0.15894088  0.38958020     0.02100
H407        H  0.36561961  0.09046690  0.42030696     0.15100
H408        H  0.24028969  0.24824910  0.38210937     0.15100
C409        C  0.19134156  0.15386199  0.37501992     0.36700
C410        C  0.41095611  0.18638081  0.43099770     0.36600
N411        N  0.14585177  0.15136912  0.36526589    -0.43600
N412        N  0.45610772  0.19297965  0.44014546    -0.43600
C413        C  0.50955946  0.18920953  0.15898969     0.00000
C414        C  0.51966831  0.24589321  0.15738093    -0.11900
C415        C  0.47848987  0.28371942  0.14251353     0.02200
C416        C  0.43180392  0.26444406  0.11400130    -0.00100
C417        C  0.42067109  0.20704362  0.12348568    -0.11800
C418        C  0.45703756  0.17124641  0.14987795     0.02100
H419        H  0.55851200  0.26064474  0.17085772     0.15100
H420        H  0.38573233  0.18726441  0.10644980     0.15100
C421        C  0.44125054  0.11451056  0.16068905     0.36700
C422        C  0.47818980  0.33330847  0.17578559     0.36600
N423        N  0.42676075  0.06982530  0.17007121    -0.43600
N424        N  0.48041079  0.37179061  0.20442497    -0.43600
C425        C  0.39144492  0.36128085  0.08310145     0.00000
C426        C  0.33973135  0.38552319  0.09409528    -0.11900
C427        C  0.33458253  0.43248051  0.12824614     0.02200
C428        C  0.38106567  0.45711229  0.14860347    -0.00100
C429        C  0.42877823  0.44811770  0.11850555    -0.11800
C430        C  0.43525543  0.39968833  0.08658591     0.02100
H431        H  0.30309480  0.36638965  0.08029634     0.15100
H432        H  0.46419709  0.47162076  0.12917377     0.15100
C433        C  0.48993402  0.38837892  0.06798146     0.36700
C434        C  0.28213930  0.45405221  0.14403012     0.36600
N435        N  0.53501935  0.38149352  0.05684527    -0.43600
N436        N  0.24047307  0.47295901  0.15603189    -0.43600
C437        C  0.91230420  0.50490490  0.03451266     0.00000
C438        C  0.86412187  0.50405414  0.00442754    -0.11900
C439        C  0.81498738  0.51739087  0.03132415     0.02200
C440        C  0.81455120  0.52807600  0.09028691    -0.00100
C441        C  0.86063215  0.50845464  0.11946034    -0.11800
C442        C  0.90990176  0.50861794  0.09288301     0.02100
H443        H  0.86616517  0.50264061  0.95906172     0.15100
H444        H  0.86176583  0.50405090  0.16457089     0.15100
C445        C  0.95063161  0.53801122  0.12223687     0.36700
C446        C  0.76907801  0.52780379  0.99561212     0.36600
N447        N  0.98037106  0.56773579  0.14286208    -0.43600
N448        N  0.73429556  0.53847072  0.96507044    -0.43600
C449        C  0.10329317  0.54729441  0.16220918     0.00000
C450        C  0.07482754  0.50099963  0.14518956    -0.11900
C451        C  0.06440080  0.45653314  0.18019927     0.02200
C452        C  0.08236309  0.45648281  0.23668803    -0.00100
C453        C  0.12123768  0.49784299  0.24911582    -0.11800
C454        C  0.12937997  0.54442853  0.21398641     0.02100
H455        H  0.05809949  0.50004643  0.10375510     0.15100
H456        H  0.14654839  0.49516061  0.28510157     0.15100
C457        C  0.16394806  0.58828119  0.23238490     0.36700
C458        C  0.02969932  0.41528550  0.15701613     0.36600
N459        N  0.19149627  0.62346717  0.24742162    -0.43600
N460        N  0.00227870  0.38257481  0.13731715    -0.43600
C461        C  0.13097650  0.71124017  0.59934689     0.00000
C462        C  0.08263152  0.68242019  0.61129363    -0.11900
C463        C  0.07658406  0.65191691  0.66022116     0.02200
C464        C  0.11801555  0.65197255  0.69885416    -0.00100
C465        C  0.16755492  0.67441195  0.68554952    -0.11800
C466        C  0.17627833  0.69751536  0.63327954     0.02100
H467        H  0.04774991  0.68756609  0.58452733     0.15100
H468        H  0.19988749  0.67289852  0.71553957     0.15100
C469        C  0.23171314  0.69709142  0.61435503     0.36700
C470        C  0.02606246  0.62615982  0.67259884     0.36600
N471        N  0.27661798  0.69408676  0.60096134    -0.43600
N472        N  0.98561422  0.60545968  0.68316873    -0.43600
C473        C  0.18644115  0.78912579  0.55534944     0.00000
C474        C  0.23279164  0.78322440  0.52012616    -0.11900
C475        C  0.28398559  0.80763347  0.53361398     0.02200
C476        C  0.29086091  0.84083301  0.58255475    -0.00100
C477        C  0.24529846  0.84684560  0.61641241    -0.11800
C478        C  0.19466022  0.82439662  0.60339467     0.02100
H479        H  0.23052808  0.75595023  0.48434779     0.15100
H480        H  0.24971726  0.86876459  0.65529879     0.15100
C481        C  0.15344932  0.83923219  0.64369460     0.36700
C482        C  0.33038357  0.79170895  0.50045907     0.36600
N483        N  0.12453943  0.85569745  0.67834452    -0.43600
N484        N  0.36771086  0.77786625  0.47433607    -0.43600
C485        C  0.47918581  0.56261621  0.72366250     0.00000
C486        C  0.45237485  0.51173488  0.73381186    -0.11900
C487        C  0.45111723  0.46995460  0.69272049     0.02200
C488        C  0.48264020  0.47544288  0.64353901    -0.00100
C489        C  0.51866361  0.51952669  0.63994418    -0.11800
C490        C  0.51588701  0.56368441  0.67695855     0.02100
H491        H  0.42937097  0.50617501  0.77221723     0.15100
H492        H  0.54679806  0.52230116  0.60496592     0.15100
C493        C  0.54973819  0.61027598  0.66251886     0.36700
C494        C  0.41760324  0.42220370  0.70209901     0.36600
N495        N  0.57665216  0.64752312  0.65060172    -0.43600
N496        N  0.39075572  0.38384773  0.70957685    -0.43600
C497        C  0.47543970  0.66957001  0.73160987     0.00000
C498        C  0.48741875  0.71956183  0.75883429    -0.11900
C499        C  0.46459508  0.77203732  0.74238285     0.02200
C500        C  0.44167458  0.78021753  0.68813332    -0.00100
C501        C  0.43299005  0.73180534  0.65791531    -0.11800
C502        C  0.44441685  0.67810040  0.68038075     0.02100
H503        H  0.51146597  0.71736040  0.79625514     0.15100
H504        H  0.41273816  0.73581747  0.61784481     0.15100
C505        C  0.41842254  0.63413393  0.65043096     0.36700
C506        C  0.46552335  0.81472657  0.78409215     0.36600
N507        N  0.39573909  0.60033701  0.62617358    -0.43600
N508        N  0.46819437  0.84532679  0.82109880    -0.43600
C509        C  0.42059639  0.62145370  0.79579994     0.00000
C510        C  0.37339408  0.60520112  0.76880710    -0.11900
C511        C  0.32321364  0.62679995  0.78338588     0.02200
C512        C  0.31869718  0.66588726  0.82709975    -0.00100
C513        C  0.36452208  0.68208268  0.85518076    -0.11800
C514        C  0.41480665  0.66061153  0.84081241     0.02100
H515        H  0.37480640  0.57741302  0.73368110     0.15100
H516        H  0.36077403  0.71109197  0.88978043     0.15100
C517        C  0.45866999  0.67845795  0.87567047     0.36700
C518        C  0.27848343  0.60391437  0.75376272     0.36600
N519        N  0.49298238  0.69259589  0.90459055    -0.43600
N520        N  0.24584130  0.58129704  0.72865426    -0.43600
C521        C  0.32873005  0.98276171  0.96220398     0.00000
C522        C  0.33930939  0.94421120  0.00594217    -0.11900
C523        C  0.38006678  0.95246599  0.04434224     0.02200
C524        C  0.41309129  0.99970865  0.03893334    -0.00100
C525        C  0.39871842  0.04143621  0.00031665    -0.11800
C526        C  0.35663148  0.03417258  0.96321766     0.02100
H527        H  0.31443439  0.90841105  0.01279982     0.15100
H528        H  0.42206803  0.07876746  0.99663855     0.15100
C529        C  0.34554278  0.07876916  0.92370816     0.36700
C530        C  0.38600119  0.91140193  0.08874861     0.36600
N531        N  0.33664515  0.11439925  0.89196946    -0.43600
N532        N  0.39019400  0.87857797  0.12438009    -0.43600
C533        C  0.30687358  0.97783290  0.85782610     0.00000
C534        C  0.27231291  0.97667346  0.81063022    -0.11900
C535        C  0.29012501  0.95976958  0.75578161     0.02200
C536        C  0.34434982  0.94116114  0.74544830    -0.00100
C537        C  0.37813917  0.94284189  0.79124547    -0.11800
C538        C  0.36243413  0.96194674  0.84456802     0.02100
H539        H  0.22994376  0.98631593  0.81709626     0.15100
H540        H  0.41849810  0.92750148  0.78551456     0.15100
C541        C  0.40724300  0.95984947  0.88299905     0.36700
C542        C  0.25068523  0.96226743  0.71194789     0.36600
N543        N  0.44490143  0.95664558  0.91126256    -0.43600
N544        N  0.21769396  0.96641689  0.67805795    -0.43600
C545        C  0.19160607  0.82706739  0.95276862     0.00000
C546        C  0.24720952  0.82101732  0.94573589    -0.11900
C547        C  0.27789608  0.86580301  0.92725205     0.02200
C548        C  0.25258444  0.91920259  0.92141537    -0.00100
C549        C  0.19561453  0.92009469  0.91599176    -0.11800
C550        C  0.16504733  0.87518383  0.93376381     0.02100
H551        H  0.26687259  0.78164127  0.95639488     0.15100
H552        H  0.17445894  0.95768961  0.90256955     0.15100
C553        C  0.10696613  0.88012553  0.93440154     0.36700
C554        C  0.33451166  0.85456096  0.91804541     0.36600
N555        N  0.06041763  0.88403090  0.93482457    -0.43600
N556        N  0.37934147  0.84193497  0.91173047    -0.43600
C557        C  0.67517694  0.43050020  0.02478786     0.00000
C558        C  0.65273410  0.48361428  0.03520475    -0.11900
C559        C  0.67141147  0.51977576  0.07747242     0.02200
C560        C  0.71895501  0.50680458  0.11035716    -0.00100
C561        C  0.73289151  0.44878135  0.10839853    -0.11800
C562        C  0.71148980  0.41136269  0.06752196     0.02100
H563        H  0.62153509  0.49960550  0.00774325     0.15100
H564        H  0.76464190  0.43341821  0.13569643     0.15100
C565        C  0.72311363  0.35293593  0.07553038     0.36700
C566        C  0.63855181  0.56945121  0.08330061     0.36600
N567        N  0.73173610  0.30626453  0.08489065    -0.43600
N568        N  0.60984387  0.60788946  0.08574813    -0.43600
C569        C  0.52604006  0.33486275  0.94273463     0.00000
C570        C  0.52665115  0.28350481  0.97177078    -0.11900
C571        C  0.48061115  0.26349065  0.00136049     0.02200
C572        C  0.43275171  0.29684668  0.00914719    -0.00100
C573        C  0.42914862  0.34241103  0.97037888    -0.11800
C574        C  0.47442594  0.36079747  0.93774200     0.02100
H575        H  0.56325622  0.25818265  0.97078971     0.15100
H576        H  0.39209145  0.36689317  0.96896960     0.15100
C577        C  0.46584370  0.40320001  0.89578834     0.36700
C578        C  0.48054836  0.20508779  0.01398588     0.36600
N579        N  0.45820920  0.43487003  0.85982367    -0.43600
N580        N  0.48064758  0.15751164  0.02132524    -0.43600
C581        C  0.58978245  0.50158350  0.85970022     0.00000
C582        C  0.54521020  0.52352355  0.88984466    -0.11900
C583        C  0.50651444  0.55951577  0.86370579     0.02200
C584        C  0.51919131  0.59010589  0.81216023    -0.00100
C585        C  0.57244464  0.57904392  0.79345932    -0.11800
C586        C  0.59610674  0.52616880  0.80553696     0.02100
H587        H  0.53477216  0.50615389  0.93027244     0.15100
H588        H  0.58699865  0.60074118  0.75699011     0.15100
C589        C  0.59703882  0.48991721  0.75778284     0.36700
C590        C  0.45360929  0.55614795  0.88930268     0.36600
N591        N  0.59512984  0.46061826  0.71966167    -0.43600
N592        N  0.41195395  0.55191677  0.91106400    -0.43600
C593        C  0.85033644  0.97667938  0.30912087     0.00000
C594        C  0.84564363  0.91889807  0.30911299    -0.11900
C595        C  0.87905922  0.88657234  0.27404991     0.02200
C596        C  0.92250140  0.91240634  0.24404163    -0.00100
C597        C  0.91040646  0.96828564  0.22824820    -0.11800
C598        C  0.87709405  0.00140418  0.26318220     0.02100
H599        H  0.82102188  0.89853644  0.34071680     0.15100
H600        H  0.93350204  0.98853974  0.19540464     0.15100
C601        C  0.87730592  0.06115609  0.25701823     0.36700
C602        C  0.86811518  0.82797133  0.27228965     0.36600
N603        N  0.87686339  0.10917618  0.25277505    -0.43600
N604        N  0.85742321  0.78132216  0.27171521    -0.43600
C605        C  0.21087661  0.04560384  0.45089273     0.00000
C606        C  0.19277734  0.09186949  0.48290508    -0.11900
C607        C  0.14549786  0.09032264  0.51443990     0.02200
C608        C  0.11739533  0.04024697  0.51883872    -0.00100
C609        C  0.14060291  0.99164104  0.49813368    -0.11800
C610        C  0.18804582  0.99317860  0.46681000     0.02100
H611        H  0.21468241  0.13020980  0.48394506     0.15100
H612        H  0.12102318  0.95232875  0.50598770     0.15100
C613        C  0.21238345  0.93940513  0.45558596     0.36700
C614        C  0.12523729  0.14182837  0.53814853     0.36600
N615        N  0.22970678  0.89507190  0.44794326    -0.43600
N616        N  0.10969986  0.18353952  0.55665259    -0.43600
C617        C  0.99107817  0.86488215  0.53296027     0.00000
C618        C  0.99389057  0.83104213  0.58078278    -0.11900
C619        C  0.04007331  0.79951076  0.59321889     0.02200
C620        C  0.08417947  0.79676672  0.55342381    -0.00100
C621        C  0.08307916  0.83760790  0.51072647    -0.11800
C622        C  0.03655248  0.86776657  0.49736767     0.02100
H623        H  0.96076928  0.83195646  0.61090167     0.15100
H624        H  0.11893238  0.84499322  0.48603270     0.15100
C625        C  0.03787288  0.90204104  0.44734279     0.36700
C626        C  0.04177573  0.78111607  0.65115872     0.36600
N627        N  0.03900959  0.92935013  0.40713935    -0.43600
N628        N  0.04129874  0.76848806  0.69818351    -0.43600
C629        C  0.49873566  0.09056803  0.73708453     0.00000
C630        C  0.49875100  0.03303339  0.75357119    -0.11900
C631        C  0.47590457  0.99113244  0.72259306     0.02200
C632        C  0.43679883  0.00259637  0.68268905    -0.00100
C633        C  0.43206460  0.05957004  0.66579584    -0.11800
C634        C  0.46384339  0.10251314  0.69068599     0.02100
H635        H  0.52514158  0.01616367  0.78523372     0.15100
H636        H  0.40687350  0.07060107  0.63059387     0.15100
C637        C  0.46240482  0.15689707  0.66473822     0.36700
C638        C  0.50222479  0.93750133  0.72621826     0.36600
N639        N  0.46109044  0.20025701  0.64311085    -0.43600
N640        N  0.52812325  0.89730827  0.72952339    -0.43600
C641        C  0.57193002  0.09581130  0.80875997     0.00000
C642        C  0.62309958  0.06983997  0.81305031    -0.11900
C643        C  0.63375875  0.03090007  0.85570469     0.02200
C644        C  0.59366624  0.01981734  0.89652902    -0.00100
C645        C  0.54657365  0.05245829  0.89729370    -0.11800
C646        C  0.53662633  0.09196246  0.85610599     0.02100
H647        H  0.65409932  0.07761340  0.78190385     0.15100
H648        H  0.51670863  0.04718851  0.93039105     0.15100
C649        C  0.48654878  0.12291467  0.86130332     0.36700
C650        C  0.68583461  0.00322643  0.85606861     0.36600
N651        N  0.44628026  0.14691499  0.86807332    -0.43600
N652        N  0.72764068  0.98112316  0.85605634    -0.43600
C653        C  0.58618898  0.12069964  0.69988846     0.00000
C654        C  0.58832507  0.16859265  0.66434799    -0.11900
C655        C  0.61928901  0.16954618  0.61544808     0.02200
C656        C  0.64745076  0.12146651  0.59905391    -0.00100
C657        C  0.63937075  0.07167944  0.62798896    -0.11800
C658        C  0.60979247  0.07038567  0.67799143     0.02100
H659        H  0.56701808  0.20672171  0.67529853     0.15100
H660        H  0.66172267  0.03464194  0.61509165     0.15100
C661        C  0.61106380  0.01717212  0.70628003     0.36700
C662        C  0.62432384  0.22099386  0.58401681     0.36600
N663        N  0.61666768  0.97412190  0.72783656    -0.43600
N664        N  0.62927699  0.26162686  0.55814734    -0.43600
C665        C  0.55996911  0.18731987  0.77737237     0.00000
C666        C  0.61486243  0.19889941  0.78910890    -0.11900
C667        C  0.63108672  0.23920364  0.82689694     0.02200
C668        C  0.59449337  0.28049436  0.84606766    -0.00100
C669        C  0.54041925  0.27594909  0.82632614    -0.11800
C670        C  0.52266344  0.22965317  0.79399213     0.02100
H671        H  0.64613380  0.17125017  0.77307212     0.15100
H672        H  0.51143317  0.30864479  0.83593847     0.15100
C673        C  0.46687329  0.22823838  0.77816764     0.36700
C674        C  0.68602597  0.23385628  0.84534283     0.36600
N675        N  0.42165781  0.22821542  0.76664155    -0.43600
N676        N  0.73060285  0.22653265  0.85750794    -0.43600
C677        C  0.66465675  0.41424681  0.50866864     0.00000
C678        C  0.71637945  0.42767409  0.49012206    -0.11900
C679        C  0.75620442  0.44509351  0.52814658     0.02200
C680        C  0.74298659  0.45448417  0.58669237    -0.00100
C681        C  0.68785918  0.44579798  0.60013651    -0.11800
C682        C  0.65413567  0.41626884  0.56607062     0.02100
H683        H  0.72440600  0.42845513  0.44533181     0.15100
H684        H  0.66929093  0.46143404  0.63798755     0.15100
C685        C  0.60793165  0.38993091  0.59127327     0.36700
C686        C  0.80516479  0.46264392  0.50128686     0.36600
N687        N  0.57302847  0.36679979  0.61339099    -0.43600
N688        N  0.84302368  0.47698949  0.47687798    -0.43600
C689        C  0.74991342  0.47338712  0.69397241     0.00000
C690        C  0.73052327  0.41859123  0.70529452    -0.11900
C691        C  0.69961282  0.40309971  0.75194276     0.02200
C692        C  0.69250579  0.43872884  0.79805149    -0.00100
C693        C  0.71502983  0.49299355  0.79092911    -0.11800
C694        C  0.74092644  0.51109607  0.73925265     0.02100
H695        H  0.73618378  0.38702267  0.67349693     0.15100
H696        H  0.71036489  0.52232805  0.82496118     0.15100
C697        C  0.75746300  0.56810657  0.73477589     0.36700
C698        C  0.66743582  0.35445005  0.74427679     0.36600
N699        N  0.77009473  0.61423571  0.73196539    -0.43600
N700        N  0.64108242  0.31713860  0.73263125    -0.43600
C701        C  0.83542346  0.44593590  0.63946826     0.00000
C702        C  0.84132650  0.40717796  0.68396897    -0.11900
C703        C  0.84134147  0.35079340  0.67001347     0.02200
C704        C  0.85704242  0.33572098  0.61490124    -0.00100
C705        C  0.87745354  0.37752415  0.57956033    -0.11800
C706        C  0.86981785  0.43314363  0.59380660     0.02100
H707        H  0.83110706  0.41874438  0.72663498     0.15100
H708        H  0.89991803  0.36735228  0.54166317     0.15100
C709        C  0.91099401  0.47040815  0.57451981     0.36700
C710        C  0.81650606  0.31267214  0.70927036     0.36600
N711        N  0.94588767  0.49797962  0.55877987    -0.43600
N712        N  0.79386859  0.28349117  0.74003278    -0.43600
C713        C  0.04459385  0.37430429  0.93503838     0.00000
C714        C  0.01408999  0.37185435  0.98481901    -0.11900
C715        C  0.96974793  0.33759197  0.98947024     0.02200
C716        C  0.95608046  0.30252305  0.94433610    -0.00100
C717        C  0.99112173  0.30222572  0.89656741    -0.11800
C718        C  0.03344383  0.33866255  0.89095782     0.02100
H719        H  0.02334259  0.39868248  0.01955654     0.15100
H720        H  0.98845169  0.27151370  0.86403609     0.15100
C721        C  0.06592275  0.33697657  0.84029926     0.36700
C722        C  0.93834752  0.33929048  0.04087714     0.36600
N723        N  0.09147523  0.33520965  0.79947522    -0.43600
N724        N  0.91175500  0.34057122  0.08101640    -0.43600
C725        C  0.85454991  0.28562691  0.96555868     0.00000
C726        C  0.84642457  0.34443523  0.95652538    -0.11900
C727        C  0.79554857  0.36973043  0.94519924     0.02200
C728        C  0.74754743  0.34024923  0.95177327    -0.00100
C729        C  0.75365746  0.28276896  0.96420918    -0.11800
C730        C  0.80529910  0.25542750  0.96823711     0.02100
H731        H  0.88025346  0.37114479  0.94905269     0.15100
H732        H  0.71758111  0.25798522  0.96666907     0.15100
C733        C  0.80595548  0.19554079  0.96641436     0.36700
C734        C  0.79482226  0.42226517  0.91551889     0.36600
N735        N  0.80599244  0.14757801  0.96261759    -0.43600
N736        N  0.79526570  0.46266935  0.88872630    -0.43600
C737        C  0.90546691  0.22474757  0.89737284     0.00000
C738        C  0.91365587  0.16619925  0.89375696    -0.11900
C739        C  0.91159476  0.13848546  0.84198596     0.02200
C740        C  0.90242564  0.16941150  0.79248216    -0.00100
C741        C  0.89422929  0.22640947  0.79561558    -0.11800
C742        C  0.89196949  0.25384262  0.84644495     0.02100
H743        H  0.92116742  0.14149851  0.93116984     0.15100
H744        H  0.89091669  0.25011421  0.75694341     0.15100
C745        C  0.88349558  0.31338307  0.84163892     0.36700
C746        C  0.91798668  0.07869427  0.84099100     0.36600
N747        N  0.87810377  0.36087029  0.83437148    -0.43600
N748        N  0.92287603  0.03068016  0.84086670    -0.43600
C749        C  0.84087109  0.59461311  0.29508033     0.00000
C750        C  0.84572729  0.62747599  0.24683220    -0.11900
C751        C  0.82684047  0.61058960  0.19403187     0.02200
C752        C  0.78914137  0.56553972  0.18711151    -0.00100
C753        C  0.77971965  0.53478804  0.23721359    -0.11800
C754        C  0.80729242  0.54675442  0.28898751     0.02100
H755        H  0.87029793  0.66429860  0.24896174     0.15100
H756        H  0.75372845  0.49908312  0.23527513     0.15100
C757        C  0.80048513  0.50798405  0.33451431     0.36700
C758        C  0.85429577  0.63723236  0.14769650     0.36600
N759        N  0.79434178  0.47478265  0.36925668    -0.43600
N760        N  0.87989326  0.65891943  0.11332292    -0.43600
C761        C  0.79762064  0.70667647  0.44755846     0.00000
C762        C  0.78945223  0.72690507  0.50327614    -0.11900
C763        C  0.74187375  0.75763767  0.51982242     0.02200
C764        C  0.70124815  0.77053327  0.48000607    -0.00100
C765        C  0.71239824  0.75299113  0.42423029    -0.11800
C766        C  0.75695062  0.72075184  0.40842429     0.02100
H767        H  0.82035980  0.71879897  0.53422249     0.15100
H768        H  0.68405646  0.76390828  0.39140497     0.15100
C769        C  0.75521377  0.69999862  0.35184860     0.36700
C770        C  0.73732792  0.77827663  0.57623610     0.36600
N771        N  0.75090673  0.68523957  0.30607064    -0.43600
N772        N  0.73394208  0.79541520  0.62136189    -0.43600
C773        C  0.95431863  0.74229515  0.34769027     0.00000
C774        C  0.98818987  0.73464332  0.30105682    -0.11900
C775        C  0.00637999  0.77944678  0.26749439     0.02200
C776        C  0.99039374  0.83587972  0.27934161    -0.00100
C777        C  0.96882448  0.84315914  0.33454291    -0.11800
C778        C  0.94744166  0.79771000  0.36619357     0.02100
H779        H  0.00337104  0.69332524  0.29286699     0.15100
H780        H  0.95985259  0.88500720  0.34882409     0.15100
C781        C  0.91602308  0.80861597  0.41593675     0.36700
C782        C  0.03932887  0.76315961  0.22034818     0.36600
N783        N  0.89009844  0.81597135  0.45577066    -0.43600
N784        N  0.06458655  0.74531508  0.18351944    -0.43600
C785        C  0.11880952  0.71508917  0.49481470     0.00000
C786        C  0.10313435  0.65787076  0.49887415    -0.11900
C787        C  0.05535523  0.63722709  0.47288642     0.02200
C788        C  0.02269002  0.67213879  0.43742210    -0.00100
C789        C  0.05128372  0.72117143  0.42039798    -0.11800
C790        C  0.10022136  0.73866333  0.44443034     0.02100
H791        H  0.12498109  0.63008296  0.52702379     0.15100
H792        H  0.03973047  0.74711554  0.38667434     0.15100
C793        C  0.13459417  0.77495844  0.41217635     0.36700
C794        C  0.04485659  0.57883940  0.48030838     0.36600
N795        N  0.16231391  0.80330400  0.38559304    -0.43600
N796        N  0.03859284  0.53143085  0.48576145    -0.43600
C797        C  0.99927363  0.43647287  0.29971525     0.00000
C798        C  0.97661984  0.48226874  0.26983726    -0.11900
C799        C  0.95411946  0.52904919  0.29652644     0.02200
C800        C  0.93622335  0.52701584  0.35286626    -0.00100
C801        C  0.94762615  0.47641858  0.38166788    -0.11800
C802        C  0.97831713  0.43196408  0.35611691     0.02100
H803        H  0.98288084  0.48684122  0.22568953     0.15100
H804        H  0.93489256  0.47221092  0.42496871     0.15100
C805        C  0.98923159  0.38292284  0.38975128     0.36700
C806        C  0.95951464  0.58090425  0.26669721     0.36600
N807        N  0.99777612  0.34389661  0.41730778    -0.43600
N808        N  0.96536181  0.62155277  0.24128106    -0.43600
C809        C  0.84404502  0.60644086  0.51795794     0.00000
C810        C  0.87081231  0.59745278  0.56980888    -0.11900
C811        C  0.84627969  0.56690670  0.61533794     0.02200
C812        C  0.79471599  0.54276740  0.61001263    -0.00100
C813        C  0.76405892  0.56576248  0.56531311    -0.11800
C814        C  0.78851950  0.59148547  0.51801984     0.02100
H815        H  0.91163213  0.61202460  0.57414705     0.15100
H816        H  0.72201753  0.55479754  0.56207022     0.15100
C817        C  0.75636053  0.59351020  0.46782356     0.36700
C818        C  0.87427778  0.55832594  0.66745919     0.36600
N819        N  0.72932841  0.59383754  0.42850904    -0.43600
N820        N  0.89340537  0.54935401  0.71078144    -0.43600
C821        C  0.08171545  0.25159075  0.18677971     0.00000
C822        C  0.12241436  0.29101688  0.19202114    -0.11900
C823        C  0.11666618  0.33901436  0.22509219     0.02200
C824        C  0.06598124  0.35488292  0.25061908    -0.00100
C825        C  0.02395285  0.31703494  0.24368524    -0.11800
C826        C  0.03141221  0.26592038  0.21399535     0.02100
H827        H  0.16093818  0.28318913  0.17164363     0.15100
H828        H  0.98512539  0.32683374  0.26268127     0.15100
C829        C  0.98621053  0.22969683  0.21688554     0.36700
C830        C  0.16549703  0.36965732  0.23368534     0.36600
N831        N  0.94725173  0.20462787  0.22358715    -0.43600
N832        N  0.20522392  0.39280821  0.24135383    -0.43600
C833        C  0.24177611  0.03744070  0.34641801     0.00000
C834        C  0.26911551  0.06342831  0.30070840    -0.11900
C835        C  0.24152912  0.08554395  0.25287001     0.02200
C836        C  0.18406217  0.08453450  0.24925422    -0.00100
C837        C  0.15912145  0.05249936  0.29141347    -0.11800
C838        C  0.18769002  0.02401107  0.33374362     0.02100
H839        H  0.31196690  0.07053240  0.30439269     0.15100
H840        H  0.11693856  0.04667188  0.29183792     0.15100
C841        C  0.16616658  0.97032931  0.34737355     0.36700
C842        C  0.27473501  0.10411401  0.20690319     0.36600
N843        N  0.14787851  0.92675230  0.35414608    -0.43600
N844        N  0.30369832  0.11562570  0.17047757    -0.43600
C845        C  0.33896008  0.26894373  0.07124062     0.00000
C846        C  0.31449975  0.26799473  0.12535557    -0.11900
C847        C  0.27001526  0.23499619  0.14127560     0.02200
C848        C  0.24183540  0.20113317  0.10186583    -0.00100
C849        C  0.26396873  0.20525780  0.04602569    -0.11800
C850        C  0.31128982  0.23699454  0.03098533     0.02100
H851        H  0.33418664  0.29097664  0.15808354     0.15100
H852        H  0.24456008  0.18397772  0.01272629     0.15100
C853        C  0.32999271  0.23633208  0.97368699     0.36700
C854        C  0.26015316  0.23532246  0.20095671     0.36600
N855        N  0.34488753  0.23645280  0.92754126    -0.43600
N856        N  0.25487665  0.23691971  0.24926085    -0.43600
C857        C  0.08559589  0.02777476  0.18945280     0.00000
C858        C  0.10307800  0.97290874  0.17866305    -0.11900
C859        C  0.07724631  0.92556293  0.20243303     0.02200
C860        C  0.02785939  0.93059225  0.23334164    -0.00100
C861        C  0.01844005  0.98523276  0.25385746    -0.11800
C862        C  0.04298112  0.03300034  0.22951325     0.02100
H863        H  0.13749574  0.96613012  0.15166400     0.15100
H864        H  0.98932924  0.99143182  0.28739294     0.15100
C865        C  0.02977181  0.08637121  0.25363031     0.36700
C866        C  0.10545074  0.87329594  0.19620075     0.36600
N867        N  0.02181365  0.12797633  0.27646716    -0.43600
N868        N  0.13291385  0.83428407  0.19098145    -0.43600
C869        C  0.94587104  0.21825641  0.99902832     0.00000
C870        C  0.00081909  0.20507575  0.98502295    -0.11900
C871        C  0.04105033  0.19776946  0.02590478     0.02200
C872        C  0.02783901  0.18314915  0.08151511    -0.00100
C873        C  0.97163551  0.18143905  0.09352127    -0.11800
C874        C  0.93170318  0.20369562  0.05540306     0.02100
H875        H  0.01457455  0.20991327  0.94217641     0.15100
H876        H  0.95860564  0.16316908  0.13257818     0.15100
C877        C  0.87742449  0.21049916  0.07589916     0.36700
C878        C  0.09473146  0.21510296  0.01131274     0.36600
N879        N  0.83420211  0.21616540  0.09374262    -0.43600
N880        N  0.13658840  0.23278016  0.00006141    -0.43600
C881        C  0.18979430  0.09155198  0.03651266     0.00000
C882        C  0.18969811  0.10445804  0.97766470    -0.11900
C883        C  0.21696493  0.06987135  0.93671833     0.02200
C884        C  0.24040176  0.01788734  0.95296251    -0.00100
C885        C  0.22832255  0.00167950  0.00941173    -0.11800
C886        C  0.21074473  0.03866727  0.05071967     0.02100
H887        H  0.17042077  0.14236166  0.96322312     0.15100
H888        H  0.23855058  0.95999093  0.02355690     0.15100
C889        C  0.21983997  0.02106203  0.10780301     0.36700
C890        C  0.21807688  0.08779587  0.87896665     0.36600
N891        N  0.23015933  0.00412289  0.15207210    -0.43600
N892        N  0.21861531  0.10271826  0.83265687    -0.43600
loop_ 
_geom_bond_atom_site_label_1 
_geom_bond_atom_site_label_2 
_geom_bond_distance 
_geom_bond_site_symmetry_2 
_ccdc_geom_bond_type 
C1            H2   1.111       .  S
C1            C7   1.602       .  S
C1            C6   1.579       .  S
C1            C5   1.572       .  S
C3            H4   1.083       .  S
C3            C9   1.572       .  S
C3            C8   1.591       .  S
C3           C10   1.589       .  S
C5            C8   1.398       .  D
C5          C872   1.550       .  S
C6            C9   1.383       .  D
C6          C857   1.548       .  S
C7           C10   1.416       .  D
C7          C881   1.546       .  S
C8          C821   1.554       .  S
C9          C836   1.558       .  S
C10         C848   1.605       .  S
C11          H12   1.099       .  S
C11          C17   1.613       .  S
C11          C16   1.605       .  S
C11          C15   1.596       .  S
C13          H14   1.097       .  S
C13          C19   1.556       .  S
C13          C18   1.577       .  S
C13          C20   1.572       .  S
C15          C18   1.392       .  D
C15         C800   1.546       .  S
C16          C19   1.388       .  D
C16         C809   1.561       .  S
C17          C20   1.399       .  D
C17         C788   1.605   1_655  S
C18         C749   1.574       .  S
C19         C761   1.543       .  S
C20         C773   1.527       .  S
C21         C716   1.560       .  S
C21         C725   1.626       .  S
C21         C737   1.565       .  S
C21         C869   1.626       .  S
C22         C680   1.616       .  S
C22         C689   1.640       .  S
C22         C701   1.592       .  S
C22         C812   1.609       .  S
C23         C629   1.618       .  S
C23         C641   1.557       .  S
C23         C653   1.564       .  S
C23         C665   1.606       .  S
Zr24         O25   2.447       .  S
Zr24         O26   2.394   1_545  S
Zr24         O27   2.415   1_655  S
Zr24         O30   2.399       .  S
Zr24         O32   2.380       .  S
Zr24         O33   2.388       .  S
Zr24         O34   2.387       .  S
Zr24         O35   2.385       .  S
O25          H81   0.990   1_655  S
O25          H89   0.990       .  S
O26          C46   1.271       .  A
O27          C48   1.282       .  A
O28         Zr38   2.473       .  S
O28          C47   1.288       .  A
O29         Zr37   2.395   1_455  S
O29          C48   1.278       .  A
O30          C47   1.278       .  A
O31         Zr39   2.428       .  S
O31          C46   1.281       .  A
O32         Zr37   2.373       .  S
O32         Zr39   2.372   1_545  S
O33         Zr38   2.401       .  S
O33         Zr39   2.383   1_545  S
O33          H68   0.965   1_545  S
O34         Zr37   2.410       .  S
O34         Zr54   2.368       .  S
O34          H71   0.965       .  S
O35         Zr38   2.381       .  S
O35         Zr54   2.388       .  S
Zr36         O61   2.441       .  S
Zr36         O55   2.403       .  S
Zr36         O63   2.403       .  S
Zr36         O51   2.432       .  S
Zr36         O42   2.407       .  S
Zr36         O43   2.392       .  S
Zr36         O44   2.362       .  S
Zr36         O45   2.402       .  S
Zr37         O56   2.436   1_655  S
Zr37         O49   2.434   1_655  S
Zr37         O50   2.433       .  S
Zr37         O43   2.389       .  S
Zr37         O44   2.377       .  S
Zr38         O40   2.436       .  S
Zr38         O62   2.449       .  S
Zr38         O64   2.432       .  S
Zr38         O42   2.418       .  S
Zr38         O45   2.404       .  S
Zr39         O65   2.422       .  S
Zr39         O66   2.443       .  S
Zr39         O41   2.443       .  S
Zr39         O42   2.378   1_565  S
Zr39         O43   2.388   1_565  S
O40          H77   0.990       .  S
O41          H72   0.990       .  S
O41          H86   0.991       .  S
O43          H69   0.963       .  S
O44         Zr54   2.388       .  S
O45         Zr54   2.367       .  S
O45          H70   0.966       .  S
C46         C617   1.474       .  S
C47         C593   1.476   1_545  S
C48         C608   1.451       .  S
O49          H85   0.990   1_445  S
O50          C52   1.283       .  A
O51          C52   1.286       .  A
C52         C740   1.469       .  S
O53         Zr54   2.440       .  S
O53          H82   0.990       .  S
Zr54         O57   2.433       .  S
Zr54         O58   2.440       .  S
Zr54         O59   2.388       .  S
O55          C60   1.277       .  A
O56          H73   0.990       .  S
O56          H88   0.990       .  S
O57          H74   0.990   1_655  S
O58          H78   0.990       .  S
O58          H87   0.991       .  S
O59          C60   1.277       .  A
C60         C704   1.466       .  S
O61          H80   0.990       .  S
O61          H84   0.989       .  S
O62          H76   0.990       .  S
O62          H83   0.990       .  S
O63          C67   1.272       .  A
O64          C67   1.281       .  A
O65          H75   0.990       .  S
O66          H79   0.990       .  S
C67         C656   1.455       .  S
C90          H91   1.102       .  S
C90          C96   1.568       .  S
C90          C95   1.587       .  S
C90          C94   1.573       .  S
C92          H93   1.100       .  S
C92          C98   1.575       .  S
C92          C97   1.601       .  S
C92          C99   1.599       .  S
C94          C97   1.400       .  D
C94         C692   1.559       .  S
C95          C98   1.382       .  D
C95         C668   1.545       .  S
C96          C99   1.401       .  D
C96         C728   1.541       .  S
C97         C581   1.564       .  S
C98         C569   1.555       .  S
C99         C557   1.576   1_556  S
C100        C521   1.549       .  S
C100        C533   1.615       .  S
C100        C548   1.556       .  S
C100        C884   1.620   1_565  S
C101        C485   1.567       .  S
C101        C497   1.616       .  S
C101        C509   1.540       .  S
C101        C584   1.617       .  S
C102        C461   1.543       .  S
C102        C473   1.626       .  S
C102        C620   1.579       .  S
C102        C785   1.635       .  S
Zr103       O104   2.435       .  S
Zr103       O105   2.388       .  S
Zr103       O106   2.356       .  S
Zr103       O109   2.406       .  S
Zr103       O111   2.413       .  S
Zr103       O112   2.416       .  S
Zr103       O113   2.435       .  S
Zr103       O114   2.386       .  S
O104        H160   0.990       .  S
O104        H168   0.990       .  S
O105        C125   1.264       .  A
O106        C127   1.256       .  A
O107       Zr117   2.375       .  S
O107        C126   1.269       .  A
O108       Zr116   2.427       .  S
O108        C127   1.255   1_554  A
O109        C126   1.276       .  A
O110       Zr118   2.420       .  S
O110        C125   1.272       .  A
O111       Zr116   2.439   1_556  S
O111       Zr118   2.355       .  S
O112       Zr117   2.373       .  S
O112       Zr118   2.374       .  S
O112        H147   0.958       .  S
O113       Zr116   2.491   1_556  S
O113       Zr133   2.392       .  S
O113        H150   0.974       .  S
O114       Zr117   2.408       .  S
O114       Zr133   2.358       .  S
Zr115       O140   2.449       .  S
Zr115       O134   2.435       .  S
Zr115       O142   2.376   1_554  S
Zr115       O130   2.383       .  S
Zr115       O121   2.385   1_554  S
Zr115       O122   2.409       .  S
Zr115       O123   2.384       .  S
Zr115       O124   2.371   1_554  S
Zr116       O135   2.435       .  S
Zr116       O128   2.435       .  S
Zr116       O129   2.445       .  S
Zr116       O122   2.439       .  S
Zr116       O123   2.412       .  S
Zr117       O119   2.435       .  S
Zr117       O141   2.434       .  S
Zr117       O143   2.421       .  S
Zr117       O121   2.369       .  S
Zr117       O124   2.358       .  S
Zr118       O144   2.435       .  S
Zr118       O145   2.439   1_556  S
Zr118       O120   2.437   1_556  S
Zr118       O121   2.398       .  S
Zr118       O122   2.397   1_556  S
O119        H156   0.990       .  S
O120        H151   0.990   1_554  S
O120        H165   0.990       .  S
O122        H148   0.966       .  S
O123       Zr133   2.383   1_554  S
O124       Zr133   2.376       .  S
O124        H149   0.964       .  S
C125        C512   1.452       .  S
C126        C464   1.418       .  S
C127        C545   1.443       .  S
O128        H164   0.990       .  S
O129        C131   1.260       .  A
O130        C131   1.260       .  A
C131        C449   1.481       .  S
O132       Zr133   2.438   1_655  S
O132        H161   0.990   1_655  S
Zr133       O136   2.439   1_455  S
Zr133       O137   2.439   1_455  S
Zr133       O138   2.387   1_455  S
O134        C139   1.287   1_455  A
O135        H152   0.990       .  S
O135        H167   0.989       .  S
O136        H153   0.989       .  S
O137        H157   0.990       .  S
O137        H166   0.990       .  S
O138        C139   1.276   1_556  A
C139        C437   1.455       .  S
O140        H159   0.990       .  S
O140        H163   0.990       .  S
O141        H155   0.990       .  S
O141        H162   0.990       .  S
O142        C146   1.269       .  A
O143        C146   1.281       .  A
O144        H154   0.990       .  S
O145        H158   0.990   1_554  S
C146        C713   1.451       .  S
C169        C416   1.597       .  S
C169        C425   1.585       .  S
C169        C572   1.622       .  S
C169        C845   1.634       .  S
C170        C392   1.588       .  S
C170        C401   1.583       .  S
C170        C605   1.576       .  S
C170        C833   1.601       .  S
C171        C377   1.554       .  S
C171        C452   1.590       .  S
C171        C797   1.621   1_455  S
C171        C824   1.596       .  S
Zr172       O173   2.439       .  S
Zr172       O174   2.423       .  S
Zr172       O175   2.412       .  S
Zr172       O178   2.437       .  S
Zr172       O180   2.368       .  S
Zr172       O181   2.380       .  S
Zr172       O182   2.405       .  S
Zr172       O183   2.402       .  S
O173        H229   0.990       .  S
O173        H237   0.989       .  S
O174        C194   1.284       .  A
O175        C196   1.281       .  A
O176       Zr186   2.424       .  S
O176        C195   1.283       .  A
O177       Zr185   2.449       .  S
O177        C196   1.289       .  A
O178        C195   1.286       .  A
O179       Zr187   2.392       .  S
O179        C194   1.274       .  A
O180       Zr185   2.377       .  S
O180       Zr187   2.378       .  S
O181       Zr186   2.399       .  S
O181       Zr187   2.379       .  S
O181        H216   0.965       .  S
O182       Zr185   2.409       .  S
O182       Zr202   2.384       .  S
O182        H219   0.964       .  S
O183       Zr186   2.412       .  S
O183       Zr202   2.419       .  S
Zr184       O209   2.428       .  S
Zr184       O203   2.389       .  S
Zr184       O211   2.388       .  S
Zr184       O199   2.411       .  S
Zr184       O190   2.388       .  S
Zr184       O191   2.391       .  S
Zr184       O192   2.363       .  S
Zr184       O193   2.382       .  S
Zr185       O204   2.436       .  S
Zr185       O197   2.435       .  S
Zr185       O198   2.450       .  S
Zr185       O191   2.419       .  S
Zr185       O192   2.387       .  S
Zr186       O188   2.435       .  S
Zr186       O210   2.436       .  S
Zr186       O212   2.459       .  S
Zr186       O190   2.383       .  S
Zr186       O193   2.400       .  S
Zr187       O213   2.440       .  S
Zr187       O214   2.437       .  S
Zr187       O189   2.438       .  S
Zr187       O190   2.381       .  S
Zr187       O191   2.379       .  S
O188        H225   0.990       .  S
O189        H220   0.991       .  S
O189        H234   0.990       .  S
O191        H217   0.964       .  S
O192       Zr202   2.363       .  S
O193       Zr202   2.360       .  S
O193        H218   0.966       .  S
C194        C380   1.457       .  S
C195        C428   1.479       .  S
C196        C404   1.468       .  S
O197        H233   0.990       .  S
O198        C200   1.282       .  A
O199        C200   1.274       .  A
C200        C488   1.487       .  S
O201       Zr202   2.438       .  S
O201        H230   0.990       .  S
Zr202       O205   2.437       .  S
Zr202       O206   2.437       .  S
Zr202       O207   2.473       .  S
O203        C208   1.280       .  A
O204        H221   0.990       .  S
O204        H236   0.990       .  S
O205        H222   0.990       .  S
O206        H226   0.990       .  S
O206        H235   0.990       .  S
O207        C208   1.289       .  A
C208        C677   1.475       .  S
O209        H228   0.989       .  S
O209        H232   0.986       .  S
O210        H224   0.990       .  S
O210        H231   0.990       .  S
O211        C215   1.270       .  A
O212        C215   1.282       .  A
O213        H223   0.990       .  S
O214        H227   0.990       .  S
C215        C368   1.481       .  S
C238        H239   1.110       .  S
C238        C244   1.589       .  S
C238        C243   1.586       .  S
C238        C242   1.583       .  S
C240        H241   1.103       .  S
C240        C246   1.558       .  S
C240        C245   1.575       .  S
C240        C247   1.589       .  S
C242        C245   1.389       .  D
C242        C476   1.560       .  S
C243        C246   1.396       .  D
C243        C536   1.551       .  S
C244        C247   1.404       .  D
C244        C500   1.539       .  S
C245        C389   1.532       .  S
C246        C632   1.539   1_565  S
C247        C353   1.576       .  S
C248        C344   1.568       .  S
C248        C596   1.613       .  S
C248        C776   1.612       .  S
C248        C860   1.621   1_655  S
C249        C329   1.559       .  S
C249        C356   1.619       .  S
C249        C365   1.587       .  S
C249        C764   1.596       .  S
C250        C317   1.575       .  S
C250        C440   1.564       .  S
C250        C560   1.635       .  S
C250        C752   1.645       .  S
Zr251       O252   2.441       .  S
Zr251       O253   2.417       .  S
Zr251       O254   2.441       .  S
Zr251       O257   2.429       .  S
Zr251       O259   2.353       .  S
Zr251       O260   2.395   1_565  S
Zr251       O261   2.400       .  S
Zr251       O262   2.381       .  S
O252        H308   0.989       .  S
O252        H316   0.990       .  S
O253        C273   1.283       .  A
O254        C275   1.288       .  A
O255       Zr265   2.387       .  S
O255        C274   1.272   1_545  A
O256       Zr264   2.413       .  S
O256        C275   1.281       .  A
O257        C274   1.284       .  A
O258       Zr266   2.413   1_565  S
O258        C273   1.279       .  A
O259       Zr264   2.362       .  S
O259       Zr266   2.365   1_565  S
O260       Zr265   2.413       .  S
O260       Zr266   2.382       .  S
O260        H295   0.966       .  S
O261       Zr264   2.413       .  S
O261       Zr281   2.364       .  S
O261        H298   0.964       .  S
O262       Zr265   2.395   1_565  S
O262       Zr281   2.354       .  S
Zr263       O288   2.439   1_554  S
Zr263       O282   2.405       .  S
Zr263       O290   2.392       .  S
Zr263       O278   2.403   1_544  S
Zr263       O269   2.387       .  S
Zr263       O270   2.399       .  S
Zr263       O271   2.379   1_545  S
Zr263       O272   2.371       .  S
Zr264       O283   2.437   1_554  S
Zr264       O276   2.434   1_554  S
Zr264       O277   2.407   1_554  S
Zr264       O270   2.429   1_565  S
Zr264       O271   2.390       .  S
Zr265       O267   2.442       .  S
Zr265       O289   2.441       .  S
Zr265       O291   2.445       .  S
Zr265       O269   2.368       .  S
Zr265       O272   2.384       .  S
Zr266       O292   2.436       .  S
Zr266       O293   2.428       .  S
Zr266       O268   2.436   1_554  S
Zr266       O269   2.402       .  S
Zr266       O270   2.383       .  S
O267        H304   0.989       .  S
O268        H299   0.990       .  S
O268        H313   0.990   1_545  S
O270        H296   0.965   1_554  S
O271       Zr281   2.367       .  S
O272       Zr281   2.366   1_545  S
O272        H297   0.962       .  S
C273        C341   1.459       .  S
C274        C332   1.447       .  S
C275        C320   1.470       .  S
O276        H312   0.990       .  S
O277        C279   1.268       .  A
O278        C279   1.267       .  A
C279        C644   1.467   1_565  S
O280       Zr281   2.437       .  S
O280        H309   0.990       .  S
Zr281       O284   2.434       .  S
Zr281       O285   2.438       .  S
Zr281       O286   2.394       .  S
O282        C287   1.283       .  A
O283        H300   0.990   1_556  S
O283        H315   0.990       .  S
O284        H301   0.990       .  S
O285        H305   0.990       .  S
O285        H314   0.989       .  S
O286        C287   1.276   1_565  A
C287        C524   1.475   1_545  S
O288        H307   0.989       .  S
O288        H311   0.988       .  S
O289        H303   0.990       .  S
O289        H310   0.990       .  S
O290        C294   1.279       .  A
O291        C294   1.284       .  A
O292        H302   0.991       .  S
O293        H306   0.990       .  S
C294        C413   1.455       .  S
C317        C318   1.424       .  A
C317        C322   1.442       .  A
C318        C319   1.392       .  A
C318        H323   1.086       .  S
C319        C320   1.399       .  A
C319        C326   1.445       .  S
C320        C321   1.393       .  A
C321        C322   1.401       .  A
C321        H324   1.087       .  S
C322        C325   1.440       .  S
C325        N327   1.158   1_554  T
C326        N328   1.157       .  T
C329        C330   1.414       .  A
C329        C334   1.439       .  A
C330        C331   1.392       .  A
C330        H335   1.085       .  S
C331        C332   1.407       .  A
C331        C338   1.442       .  S
C332        C333   1.379       .  A
C333        C334   1.377       .  A
C333        H336   1.083       .  S
C334        C337   1.441       .  S
C337        N339   1.156       .  T
C338        N340   1.157       .  T
C341        C342   1.396       .  A
C341        C346   1.407       .  A
C342        C343   1.394       .  A
C342        H347   1.084       .  S
C343        C344   1.421       .  A
C343        C350   1.439   1_655  S
C344        C345   1.413       .  A
C345        C346   1.391       .  A
C345        H348   1.077       .  S
C346        C349   1.438       .  S
C349        N351   1.154       .  T
C350        N352   1.157       .  T
C353        C354   1.411       .  A
C353        C358   1.432       .  A
C354        C355   1.418       .  A
C354        H359   1.078       .  S
C355        C356   1.445       .  A
C355        C362   1.445       .  S
C356        C357   1.409       .  A
C357        C358   1.421       .  A
C357        H360   1.069       .  S
C358        C361   1.434       .  S
C361        N363   1.158       .  T
C362        N364   1.157       .  T
C365        C366   1.432       .  A
C365        C370   1.437       .  A
C366        C367   1.408       .  A
C366        H371   1.071       .  S
C367        C368   1.401       .  A
C367        C374   1.444       .  S
C368        C369   1.394       .  A
C369        C370   1.378       .  A
C369        H372   1.085       .  S
C370        C373   1.448       .  S
C373        N375   1.158       .  T
C374        N376   1.157       .  T
C377        C378   1.414       .  A
C377        C382   1.422       .  A
C378        C379   1.395       .  A
C378        H383   1.085       .  S
C379        C380   1.408       .  A
C379        C386   1.444       .  S
C380        C381   1.397       .  A
C381        C382   1.389       .  A
C381        H384   1.084       .  S
C382        C385   1.444       .  S
C385        N387   1.157       .  T
C386        N388   1.157       .  T
C389        C390   1.425       .  A
C389        C394   1.410       .  A
C390        C391   1.438       .  A
C390        H395   1.080       .  S
C391        C392   1.422   1_565  A
C391        C398   1.440       .  S
C392        C393   1.413       .  A
C393        C394   1.387   1_545  A
C393        H396   1.085       .  S
C394        C397   1.436   1_565  S
C397        N399   1.156       .  T
C398        N400   1.157       .  T
C401        C402   1.419       .  A
C401        C406   1.436       .  A
C402        C403   1.395       .  A
C402        H407   1.081       .  S
C403        C404   1.403       .  A
C403        C410   1.445       .  S
C404        C405   1.395       .  A
C405        C406   1.400       .  A
C405        H408   1.085       .  S
C406        C409   1.445       .  S
C409        N411   1.157       .  T
C410        N412   1.157       .  T
C413        C414   1.388       .  A
C413        C418   1.399       .  A
C414        C415   1.401       .  A
C414        H419   1.085       .  S
C415        C416   1.434       .  A
C415        C422   1.437       .  S
C416        C417   1.426       .  A
C417        C418   1.387       .  A
C417        H420   1.080       .  S
C418        C421   1.444       .  S
C421        N423   1.157       .  T
C422        N424   1.156       .  T
C425        C426   1.423       .  A
C425        C430   1.441       .  A
C426        C427   1.400       .  A
C426        H431   1.081       .  S
C427        C428   1.398       .  A
C427        C434   1.441       .  S
C428        C429   1.393       .  A
C429        C430   1.402       .  A
C429        H432   1.086       .  S
C430        C433   1.446       .  S
C433        N435   1.157       .  T
C434        N436   1.157       .  T
C437        C438   1.400       .  A
C437        C442   1.396       .  A
C438        C439   1.406       .  A
C438        H443   1.083   1_554  S
C439        C440   1.431       .  A
C439        C446   1.445   1_554  S
C440        C441   1.415       .  A
C441        C442   1.372       .  A
C441        H444   1.080       .  S
C442        C445   1.434       .  S
C445        N447   1.152       .  T
C446        N448   1.158       .  T
C449        C450   1.393       .  A
C449        C454   1.399       .  A
C450        C451   1.375       .  A
C450        H455   1.075       .  S
C451        C452   1.422       .  A
C451        C458   1.441       .  S
C452        C453   1.431       .  A
C453        C454   1.407       .  A
C453        H456   1.069       .  S
C454        C457   1.443       .  S
C457        N459   1.157       .  T
C458        N460   1.154       .  T
C461        C462   1.420       .  A
C461        C466   1.423       .  A
C462        C463   1.380       .  A
C462        H467   1.085       .  S
C463        C464   1.386       .  A
C463        C470   1.434       .  S
C464        C465   1.384       .  A
C465        C466   1.376       .  A
C465        H468   1.079       .  S
C466        C469   1.444       .  S
C469        N471   1.158       .  T
C470        N472   1.152   1_455  T
C473        C474   1.424       .  A
C473        C478   1.449       .  A
C474        C475   1.448       .  A
C474        H479   1.083       .  S
C475        C476   1.432       .  A
C475        C482   1.439       .  S
C476        C477   1.389       .  A
C477        C478   1.414       .  A
C477        H480   1.078       .  S
C478        C481   1.439       .  S
C481        N483   1.157       .  T
C482        N484   1.157       .  T
C485        C486   1.419       .  A
C485        C490   1.432       .  A
C486        C487   1.410       .  A
C486        H491   1.083       .  S
C487        C488   1.410       .  A
C487        C494   1.442       .  S
C488        C489   1.399       .  A
C489        C490   1.386       .  A
C489        H492   1.085       .  S
C490        C493   1.447       .  S
C493        N495   1.157       .  T
C494        N496   1.157       .  T
C497        C498   1.407       .  A
C497        C502   1.460       .  A
C498        C499   1.426       .  A
C498        H503   1.078       .  S
C499        C500   1.428       .  A
C499        C506   1.435       .  S
C500        C501   1.394       .  A
C501        C502   1.417       .  A
C501        H504   1.086       .  S
C502        C505   1.444       .  S
C505        N507   1.158       .  T
C506        N508   1.156       .  T
C509        C510   1.404       .  A
C509        C514   1.438       .  A
C510        C511   1.383       .  A
C510        H515   1.076       .  S
C511        C512   1.411       .  A
C511        C518   1.440       .  S
C512        C513   1.388       .  A
C513        C514   1.383       .  A
C513        H516   1.087       .  S
C514        C517   1.448       .  S
C517        N519   1.158       .  T
C518        N520   1.157       .  T
C521        C522   1.411   1_556  A
C521        C526   1.426   1_565  A
C522        C523   1.388       .  A
C522        H527   1.077       .  S
C523        C524   1.415       .  A
C523        C530   1.446       .  S
C524        C525   1.398   1_565  A
C525        C526   1.389   1_554  A
C525        H528   1.078   1_554  S
C526        C529   1.444       .  S
C529        N531   1.156       .  T
C530        N532   1.157       .  T
C533        C534   1.422       .  A
C533        C538   1.457       .  A
C534        C535   1.436       .  A
C534        H539   1.083       .  S
C535        C536   1.430       .  A
C535        C542   1.438       .  S
C536        C537   1.384       .  A
C537        C538   1.405       .  A
C537        H540   1.069       .  S
C538        C541   1.447       .  S
C541        N543   1.158       .  T
C542        N544   1.158       .  T
C545        C546   1.394       .  A
C545        C550   1.394       .  A
C546        C547   1.394       .  A
C546        H551   1.086       .  S
C547        C548   1.424       .  A
C547        C554   1.441       .  S
C548        C549   1.420       .  A
C549        C550   1.390       .  A
C549        H552   1.084       .  S
C550        C553   1.444       .  S
C553        N555   1.157       .  T
C554        N556   1.157       .  T
C557        C558   1.406       .  A
C557        C562   1.433       .  A
C558        C559   1.422       .  A
C558        H563   1.081       .  S
C559        C560   1.450       .  A
C559        C566   1.440       .  S
C560        C561   1.431       .  A
C561        C562   1.443       .  A
C561        H564   1.084       .  S
C562        C565   1.439       .  S
C565        N567   1.157       .  T
C566        N568   1.158       .  T
C569        C570   1.408       .  A
C569        C574   1.420       .  A
C570        C571   1.425   1_556  A
C570        H575   1.085       .  S
C571        C572   1.433       .  A
C571        C578   1.432       .  S
C572        C573   1.428   1_554  A
C573        C574   1.434       .  A
C573        H576   1.084       .  S
C574        C577   1.435       .  S
C577        N579   1.155       .  T
C578        N580   1.154       .  T
C581        C582   1.411       .  A
C581        C586   1.423       .  A
C582        C583   1.425       .  A
C582        H587   1.078       .  S
C583        C584   1.460       .  A
C583        C590   1.446       .  S
C584        C585   1.412       .  A
C585        C586   1.418       .  A
C585        H588   1.072       .  S
C586        C589   1.439       .  S
C589        N591   1.156       .  T
C590        N592   1.158       .  T
C593        C594   1.394       .  A
C593        C598   1.407   1_565  A
C594        C595   1.402       .  A
C594        H599   1.084       .  S
C595        C596   1.435       .  A
C595        C602   1.439       .  S
C596        C597   1.418       .  A
C597        C598   1.410   1_565  A
C597        H600   1.083       .  S
C598        C601   1.441       .  S
C601        N603   1.156       .  T
C602        N604   1.156       .  T
C605        C606   1.418       .  A
C605        C610   1.436   1_545  A
C606        C607   1.388       .  A
C606        H611   1.078       .  S
C607        C608   1.403       .  A
C607        C614   1.445       .  S
C608        C609   1.386   1_545  A
C609        C610   1.389       .  A
C609        H612   1.083       .  S
C610        C613   1.442       .  S
C613        N615   1.157       .  T
C614        N616   1.157       .  T
C617        C618   1.395       .  A
C617        C622   1.408   1_655  A
C618        C619   1.395   1_655  A
C618        H623   1.086       .  S
C619        C620   1.443       .  A
C619        C626   1.447       .  S
C620        C621   1.407       .  A
C621        C622   1.390       .  A
C621        H624   1.079       .  S
C622        C625   1.443       .  S
C625        N627   1.156       .  T
C626        N628   1.158       .  T
C629        C630   1.433       .  A
C629        C634   1.435       .  A
C630        C631   1.386   1_545  A
C630        H635   1.075       .  S
C631        C632   1.387   1_565  A
C631        C638   1.436       .  S
C632        C633   1.426       .  A
C633        C634   1.444       .  A
C633        H636   1.079       .  S
C634        C637   1.440       .  S
C637        N639   1.158       .  T
C638        N640   1.153       .  T
C641        C642   1.409       .  A
C641        C646   1.426       .  A
C642        C643   1.399       .  A
C642        H647   1.081       .  S
C643        C644   1.412       .  A
C643        C650   1.443       .  S
C644        C645   1.396       .  A
C645        C646   1.380       .  A
C645        H648   1.085       .  S
C646        C649   1.442       .  S
C649        N651   1.156       .  T
C650        N652   1.157   1_545  T
C653        C654   1.423       .  A
C653        C658   1.434       .  A
C654        C655   1.390       .  A
C654        H659   1.082       .  S
C655        C656   1.396       .  A
C655        C662   1.445       .  S
C656        C657   1.391       .  A
C657        C658   1.394       .  A
C657        H660   1.086       .  S
C658        C661   1.439       .  S
C661        N663   1.157   1_545  T
C662        N664   1.157       .  T
C665        C666   1.426       .  A
C665        C670   1.420       .  A
C666        C667   1.395       .  A
C666        H671   1.082       .  S
C667        C668   1.410       .  A
C667        C674   1.440       .  S
C668        C669   1.432       .  A
C669        C670   1.436       .  A
C669        H672   1.080       .  S
C670        C673   1.439       .  S
C673        N675   1.158       .  T
C674        N676   1.156       .  T
C677        C678   1.396       .  A
C677        C682   1.392       .  A
C678        C679   1.418       .  A
C678        H683   1.084       .  S
C679        C680   1.449       .  A
C679        C686   1.436       .  S
C680        C681   1.420       .  A
C681        C682   1.381       .  A
C681        H684   1.077       .  S
C682        C685   1.442       .  S
C685        N687   1.157       .  T
C686        N688   1.156       .  T
C689        C690   1.431       .  A
C689        C694   1.429       .  A
C690        C691   1.396       .  A
C690        H695   1.084       .  S
C691        C692   1.407       .  A
C691        C698   1.440       .  S
C692        C693   1.435       .  A
C693        C694   1.450       .  A
C693        H696   1.084       .  S
C694        C697   1.439       .  S
C697        N699   1.157       .  T
C698        N700   1.156       .  T
C701        C702   1.411       .  A
C701        C706   1.410       .  A
C702        C703   1.397       .  A
C702        H707   1.083       .  S
C703        C704   1.415       .  A
C703        C710   1.444       .  S
C704        C705   1.403       .  A
C705        C706   1.391       .  A
C705        H708   1.085       .  S
C706        C709   1.439       .  S
C709        N711   1.157       .  T
C710        N712   1.158       .  T
C713        C714   1.403       .  A
C713        C718   1.394       .  A
C714        C715   1.388   1_455  A
C714        H719   1.083   1_556  S
C715        C716   1.420       .  A
C715        C722   1.447   1_556  S
C716        C717   1.426       .  A
C717        C718   1.383   1_655  A
C717        H720   1.078       .  S
C718        C721   1.446       .  S
C721        N723   1.157       .  T
C722        N724   1.158       .  T
C725        C726   1.438       .  A
C725        C730   1.432       .  A
C726        C727   1.419       .  A
C726        H731   1.078       .  S
C727        C728   1.403       .  A
C727        C734   1.440       .  S
C728        C729   1.415       .  A
C729        C730   1.433       .  A
C729        H732   1.084       .  S
C730        C733   1.439       .  S
C733        N735   1.156       .  T
C734        N736   1.157       .  T
C737        C738   1.420       .  A
C737        C742   1.434       .  A
C738        C739   1.409       .  A
C738        H743   1.082       .  S
C739        C740   1.406       .  A
C739        C746   1.442       .  S
C740        C741   1.383       .  A
C741        C742   1.385       .  A
C741        H744   1.082       .  S
C742        C745   1.445       .  S
C745        N747   1.157       .  T
C746        N748   1.157       .  T
C749        C750   1.394       .  A
C749        C754   1.440       .  A
C750        C751   1.412       .  A
C750        H755   1.084       .  S
C751        C752   1.454       .  A
C751        C758   1.443       .  S
C752        C753   1.418       .  A
C753        C754   1.450       .  A
C753        H756   1.083       .  S
C754        C757   1.434       .  S
C757        N759   1.155       .  T
C758        N760   1.157       .  T
C761        C762   1.430       .  A
C761        C766   1.415       .  A
C762        C763   1.436       .  A
C762        H767   1.083       .  S
C763        C764   1.419       .  A
C763        C770   1.440       .  S
C764        C765   1.422       .  A
C765        C766   1.390       .  A
C765        H768   1.084       .  S
C766        C769   1.443       .  S
C769        N771   1.157       .  T
C770        N772   1.157       .  T
C773        C774   1.399       .  A
C773        C778   1.413       .  A
C774        C775   1.412   1_655  A
C774        H779   1.074   1_655  S
C775        C776   1.435   1_455  A
C775        C782   1.437       .  S
C776        C777   1.427       .  A
C777        C778   1.428       .  A
C777        H780   1.083       .  S
C778        C781   1.437       .  S
C781        N783   1.155       .  T
C782        N784   1.155       .  T
C785        C786   1.436       .  A
C785        C790   1.401       .  A
C786        C787   1.440       .  A
C786        H791   1.084       .  S
C787        C788   1.432       .  A
C787        C794   1.439       .  S
C788        C789   1.438       .  A
C789        C790   1.419       .  A
C789        H792   1.051       .  S
C790        C793   1.442       .  S
C793        N795   1.157       .  T
C794        N796   1.158       .  T
C797        C798   1.416       .  A
C797        C802   1.441       .  A
C798        C799   1.401       .  A
C798        H803   1.067       .  S
C799        C800   1.411       .  A
C799        C806   1.436       .  S
C800        C801   1.415       .  A
C801        C802   1.438       .  A
C801        H804   1.081       .  S
C802        C805   1.442       .  S
C805        N807   1.157       .  T
C806        N808   1.154       .  T
C809        C810   1.421       .  A
C809        C814   1.430       .  A
C810        C811   1.440       .  A
C810        H815   1.083       .  S
C811        C812   1.421       .  A
C811        C818   1.440       .  S
C812        C813   1.417       .  A
C813        C814   1.417       .  A
C813        H816   1.084       .  S
C814        C817   1.444       .  S
C817        N819   1.157       .  T
C818        N820   1.157       .  T
C821        C822   1.403       .  A
C821        C826   1.439       .  A
C822        C823   1.407       .  A
C822        H827   1.083       .  S
C823        C824   1.439       .  A
C823        C830   1.445       .  S
C824        C825   1.407       .  A
C825        C826   1.431       .  A
C825        H828   1.084   1_455  S
C826        C829   1.432   1_455  S
C829        N831   1.157       .  T
C830        N832   1.157       .  T
C833        C834   1.423       .  A
C833        C838   1.421       .  A
C834        C835   1.429       .  A
C834        H839   1.084       .  S
C835        C836   1.430       .  A
C835        C842   1.437       .  S
C836        C837   1.405       .  A
C837        C838   1.404       .  A
C837        H840   1.058       .  S
C838        C841   1.437   1_545  S
C841        N843   1.157       .  T
C842        N844   1.157       .  T
C845        C846   1.421       .  A
C845        C850   1.423       .  A
C846        C847   1.417       .  A
C846        H851   1.084       .  S
C847        C848   1.442       .  A
C847        C854   1.441       .  S
C848        C849   1.438       .  A
C849        C850   1.451       .  A
C849        H852   1.071       .  S
C850        C853   1.439   1_554  S
C853        N855   1.157       .  T
C854        N856   1.159       .  T
C857        C858   1.405   1_545  A
C857        C862   1.423       .  A
C858        C859   1.425       .  A
C858        H863   1.076       .  S
C859        C860   1.428       .  A
C859        C866   1.435       .  S
C860        C861   1.420       .  A
C861        C862   1.424   1_565  A
C861        H864   1.082   1_455  S
C862        C865   1.441       .  S
C865        N867   1.155       .  T
C866        N868   1.156       .  T
C869        C870   1.432   1_655  A
C869        C874   1.428   1_556  A
C870        C871   1.409   1_556  A
C870        H875   1.080       .  S
C871        C872   1.405       .  A
C871        C878   1.441       .  S
C872        C873   1.422   1_455  A
C873        C874   1.443       .  A
C873        H876   1.075       .  S
C874        C877   1.436       .  S
C877        N879   1.156       .  T
C878        N880   1.157       .  T
C881        C882   1.434   1_554  A
C881        C886   1.404       .  A
C882        C883   1.444       .  A
C882        H887   1.076       .  S
C883        C884   1.420       .  A
C883        C890   1.439       .  S
C884        C885   1.428   1_556  A
C885        C886   1.394       .  A
C885        H888   1.080   1_545  S
C886        C889   1.440       .  S
C889        N891   1.157       .  T
C890        N892   1.157       .  T
