geometry optimzed in LAMMPS
_audit_creation_date              2020-11-30 
_audit_creation_method            'lammps2cif' 
_symmetry_space_group_name_H-M    'P1' 
_symmetry_Int_Tables_number       1 
_symmetry_cell_setting            triclinic 
loop_ 
_symmetry_equiv_pos_as_xyz 
  x,y,z 
_cell_length_a                    52.121813 
_cell_length_b                    52.182778953059426 
_cell_length_c                    52.086050866769654 
_cell_angle_alpha                 90.0005290279941 
_cell_angle_beta                  89.83338662592836 
_cell_angle_gamma                 89.99696811888649 
loop_ 
_atom_site_label 
_atom_site_type_symbol 
_atom_site_fract_x 
_atom_site_fract_y 
_atom_site_fract_z 
_atom_site_charge 
C1          C  0.00560290  0.24267498  0.22392407     0.03000
C2          C  0.99523644  0.26141904  0.23998901    -0.13200
C3          C  0.99090009  0.25669349  0.26594977     0.00500
C4          C  0.99592065  0.23242937  0.27603835    -0.11700
C5          C  0.00620084  0.21290988  0.26061883     0.03000
C6          C  0.01108291  0.21800379  0.23416807    -0.11100
H7          H  0.99124676  0.28032729  0.23228018     0.08600
H8          H  0.99285120  0.22898515  0.29635119     0.06100
H9          H  0.01952489  0.20337951  0.22206719     0.06000
O10         O  0.98928482  0.42919413  0.43497901    -0.80300
O11         O  0.99919334  0.57413024  0.43976744    -0.81800
O12         O  0.94668403  0.50562334  0.40740080    -0.78800
O13         O  0.03373255  0.50261802  0.40500534    -0.77200
O14         O  0.06449418  0.50232588  0.43618480    -0.79000
O15         O  0.91783595  0.50114346  0.44032892    -0.79900
O16         O  0.99661237  0.54459490  0.40735976    -0.81300
O17         O  0.98810106  0.46134754  0.40511320    -0.81600
Eu18       Eu  0.99056695  0.50253676  0.42704074     2.39200
O19         O  0.01658939  0.52730440  0.45404048    -0.89100
O20         O  0.96549039  0.47554166  0.45356542    -0.92700
C21         C  0.98770506  0.43755758  0.41172977     1.02000
C22         C  0.00092727  0.56734889  0.41596090     1.01800
C23         C  0.92344844  0.50376915  0.41634416     1.01800
C24         C  0.05754761  0.50285740  0.41247026     0.99600
H25         H  0.95438206  0.53899788  0.44492268     0.29400
O26         O  0.96514248  0.52783038  0.45501911    -1.01500
H27         H  0.02782775  0.46520888  0.44048056     0.29400
O28         O  0.01728532  0.47549145  0.45175252    -1.04000
O29         O  0.99617586  0.57183106  0.52454282    -0.81200
O30         O  0.99401158  0.42488105  0.51866204    -0.80800
O31         O  0.91899363  0.54292572  0.48199486    -0.79200
O32         O  0.06503321  0.54368435  0.47652905    -0.82500
O33         O  0.06469439  0.45931764  0.47780863    -0.80400
O34         O  0.91788483  0.45830516  0.48153754    -0.79000
O35         O  0.95145373  0.49813811  0.55476264    -0.80600
O36         O  0.03693810  0.49727333  0.55212703    -0.82500
O37         O  0.91983318  0.50032761  0.52449125    -0.79200
O38         O  0.06624418  0.50097315  0.51954697    -0.81900
O39         O  0.94937063  0.57459371  0.48212005    -0.77600
O40         O  0.94886631  0.42728417  0.47998696    -0.77700
O41         O  0.03509757  0.42701753  0.47650778    -0.77300
O42         O  0.03413489  0.57464655  0.47915346    -0.80800
O43         O  0.99687063  0.53941828  0.55416395    -0.80200
O44         O  0.99470206  0.45481773  0.55070487    -0.78600
Eu45       Eu  0.99189250  0.55299851  0.48149276     2.39800
Eu46       Eu  0.99205777  0.44812450  0.47781780     2.39600
Eu47       Eu  0.94009796  0.50052049  0.48155108     2.38400
Eu48       Eu  0.04368462  0.50113892  0.47820164     2.39900
Eu49       Eu  0.99360492  0.49824409  0.53208561     2.39800
O50         O  0.01881838  0.47354030  0.50392446    -0.93000
O51         O  0.96691879  0.52564444  0.50777580    -0.91900
C52         C  0.99813438  0.56326181  0.54772914     1.02200
C53         C  0.99475177  0.43141555  0.54254511     1.00900
C54         C  0.92575649  0.56677589  0.48208017     1.00300
C55         C  0.05779968  0.56742975  0.47691504     1.02300
C56         C  0.05851816  0.43539792  0.47734667     1.01200
C57         C  0.92504348  0.43452513  0.48114467     1.00100
C58         C  0.92752105  0.49899460  0.54804176     1.00100
C59         C  0.06022148  0.49927925  0.54355365     1.02800
H60         H  0.95635683  0.46233361  0.51645767     0.30100
O61         O  0.96679509  0.47329996  0.50575369    -1.05100
H62         H  0.02988312  0.53602124  0.51636158     0.32200
O63         O  0.01845999  0.52582907  0.50598550    -1.07700
C64         C  0.02580842  0.72312040  0.77274235     0.03000
C65         C  0.01731449  0.74775362  0.76458357    -0.13200
C66         C  0.01642570  0.75373675  0.73790135     0.00500
C67         C  0.02307805  0.73470553  0.72002965    -0.11700
C68         C  0.03084775  0.71035694  0.72796550     0.03000
C69         C  0.03313572  0.70520374  0.75410602    -0.11100
H70         H  0.01136787  0.76185945  0.77863181     0.08600
H71         H  0.02144035  0.73870567  0.69967755     0.06100
H72         H  0.03923360  0.68624849  0.76002776     0.06000
C73         C  0.99511080  0.25907860  0.76407278     0.03000
C74         C  0.99603036  0.23287912  0.75671494    -0.13200
C75         C  0.99700453  0.22631186  0.73025976     0.00500
C76         C  0.99837276  0.24597020  0.71192460    -0.11700
C77         C  0.99800456  0.27175718  0.71911170     0.03000
C78         C  0.99606683  0.27805295  0.74505695    -0.11100
H79         H  0.99520091  0.21798749  0.77117001     0.08600
H80         H  0.00003720  0.24103975  0.69176912     0.06100
H81         H  0.99534328  0.29806894  0.75060427     0.06000
C82         C  0.01851799  0.71370715  0.24287189     0.03000
C83         C  0.03947699  0.70221856  0.25508610    -0.13200
C84         C  0.05208251  0.71389619  0.27590638     0.00500
C85         C  0.04347526  0.73820692  0.28361869    -0.11700
C86         C  0.02142684  0.74943039  0.27313015     0.03000
C87         C  0.00869522  0.73709022  0.25256175    -0.11100
H88         H  0.04499915  0.68341941  0.24843657     0.08600
H89         H  0.05306824  0.74844401  0.29880946     0.06100
H90         H  0.99179060  0.74564844  0.24409818     0.06000
O91         O  0.01834582  0.02645163  0.42884229    -0.80300
O92         O  0.00654831  0.02955625  0.57591649    -0.81800
O93         O  0.97115092  0.05927370  0.49441412    -0.78800
O94         O  0.05365725  0.05791481  0.51057407    -0.77200
O95         O  0.08472486  0.02705692  0.51329984    -0.79000
O96         O  0.93943477  0.02902229  0.49272367    -0.79900
O97         O  0.00743352  0.05994095  0.54425345    -0.81300
O98         O  0.01665526  0.05832126  0.45891539    -0.81600
Eu99       Eu  0.01215434  0.03803396  0.50207159     2.39200
O100        O  0.03512704  0.01216250  0.53084162    -0.89100
O101        O  0.98869771  0.01114916  0.47481960    -0.92700
C102        C  0.01793932  0.05040358  0.43532386     1.02000
C103        C  0.00650025  0.05305490  0.56816208     1.01800
C104        C  0.94758270  0.05237202  0.49150774     1.01800
C105        C  0.07689573  0.05043963  0.51450224     0.99600
H106        H  0.97153778  0.02418732  0.53567992     0.29400
O107        O  0.98306430  0.01305642  0.52630534    -1.01500
H108        H  0.05278600  0.02210899  0.46921343     0.29400
O109        O  0.04096009  0.01168723  0.47902377    -1.04000
O110        O  0.00432183  0.94547521  0.57764772    -0.81200
O111        O  0.01822641  0.94193953  0.43206422    -0.80800
O112        O  0.93460260  0.98760543  0.54027231    -0.79200
O113        O  0.08129870  0.98638168  0.55264155    -0.82500
O114        O  0.08896248  0.98404241  0.46759171    -0.80400
O115        O  0.94315811  0.98556159  0.45279533    -0.79000
O116        O  0.96856152  0.91364934  0.50444390    -0.80600
O117        O  0.05213493  0.91311096  0.51324818    -0.82500
O118        O  0.93805407  0.94483448  0.49896988    -0.79200
O119        O  0.08343490  0.94385398  0.51444739    -0.81900
O120        O  0.96329004  0.98795554  0.57343285    -0.77600
O121        O  0.97793511  0.98561893  0.42582081    -0.77700
O122        O  0.06052602  0.98259699  0.43426102    -0.77300
O123        O  0.04688557  0.98670625  0.57994936    -0.80800
O124        O  0.00589346  0.91376281  0.54741055    -0.80200
O125        O  0.01401971  0.91090695  0.46280788    -0.78600
Eu126      Eu  0.00662202  0.98721222  0.55522494     2.39800
Eu127      Eu  0.01694662  0.98479479  0.45172788     2.39600
Eu128      Eu  0.95909130  0.98661973  0.49841563     2.38400
Eu129      Eu  0.06372477  0.98562533  0.50817827     2.39900
Eu130      Eu  0.01085867  0.93387560  0.50456271     2.39800
O131        O  0.04017167  0.95873362  0.48041217    -0.93000
O132        O  0.98277923  0.96110806  0.52722533    -0.91900
C133        C  0.00428352  0.92160481  0.57094797     1.02200
C134        C  0.01670800  0.91827545  0.43919632     1.00900
C135        C  0.94018715  0.98793682  0.56463498     1.00300
C136        C  0.07128796  0.98642386  0.57546296     1.02300
C137        C  0.08350419  0.98267953  0.44336801     1.01200
C138        C  0.95354426  0.98581085  0.43003980     1.00100
C139        C  0.94521812  0.92140667  0.50208758     1.00100
C140        C  0.07545619  0.92060645  0.51679607     1.02800
H141        H  0.97792033  0.94882083  0.46413214     0.30100
O142        O  0.98763099  0.95967906  0.47556858    -1.05100
H143        H  0.04370270  0.95036945  0.54443095     0.32200
O144        O  0.03453615  0.96063404  0.53210258    -1.07700
C145        C  0.22664998  0.26846662  0.48343104     0.03000
C146        C  0.25047956  0.25854091  0.47463716    -0.13200
C147        C  0.25751509  0.23297893  0.48093473     0.00500
C148        C  0.24036050  0.21779038  0.49511190    -0.11700
C149        C  0.21677589  0.22751131  0.50341846     0.03000
C150        C  0.21058178  0.25294363  0.49824560    -0.11100
H151        H  0.26306928  0.27027534  0.46297875     0.08600
H152        H  0.24518863  0.19797029  0.49906178     0.06100
H153        H  0.19233311  0.26051607  0.50484713     0.06000
C154        C  0.73118980  0.22593241  0.47681094     0.03000
C155        C  0.75013549  0.20749088  0.47204817    -0.13200
C156        C  0.77612667  0.21392644  0.47248408     0.00500
C157        C  0.78326890  0.23940735  0.47667894    -0.11700
C158        C  0.76488630  0.25860117  0.48118427     0.03000
C159        C  0.73851702  0.25174683  0.48130498    -0.11100
H160        H  0.74458363  0.18760208  0.46963363     0.08600
H161        H  0.80347581  0.24433282  0.47651984     0.06100
H162        H  0.72404968  0.26602856  0.48556557     0.06000
C163        C  0.72556464  0.76392560  0.49450550     0.03000
C164        C  0.74535772  0.77961716  0.50380710    -0.13200
C165        C  0.76936553  0.76940284  0.50966136     0.00500
C166        C  0.77357210  0.74320739  0.50712533    -0.11700
C167        C  0.75463725  0.72677698  0.49768540     0.03000
C168        C  0.73027603  0.73720735  0.49115391    -0.11100
H169        H  0.74229066  0.80008604  0.50571299     0.08600
H170        H  0.79245776  0.73566573  0.51152101     0.06100
H171        H  0.71544719  0.72492045  0.48343841     0.06000
C172        C  0.22743934  0.72965211  0.48313825     0.03000
C173        C  0.21415851  0.74213621  0.50294008    -0.13200
C174        C  0.22514733  0.76253784  0.51646468     0.00500
C175        C  0.25026439  0.76996184  0.51047662    -0.11700
C176        C  0.26356505  0.75896151  0.48981934     0.03000
C177        C  0.25222463  0.73839047  0.47617456    -0.11100
H178        H  0.19458946  0.73642143  0.50702285     0.08600
H179        H  0.25896265  0.78578039  0.52074409     0.06100
H180        H  0.26220553  0.72980575  0.46007049     0.06000
C181        C  0.75689922  0.99293683  0.22533353     0.03000
C182        C  0.73849325  0.99961218  0.24367237    -0.13200
C183        C  0.74422540  0.99986073  0.26979565     0.00500
C184        C  0.76940612  0.99555995  0.27778834    -0.11700
C185        C  0.78881337  0.98989593  0.25993183     0.03000
C186        C  0.78244925  0.98793822  0.23343462    -0.11100
H187        H  0.71888797  0.00303266  0.23759781     0.08600
H188        H  0.77378490  0.99559802  0.29813539     0.06100
H189        H  0.79687437  0.98222799  0.21957793     0.06000
O190        O  0.44747669  0.07154616  0.48097803    -0.80300
O191        O  0.45205290  0.92535532  0.48206739    -0.81800
O192        O  0.41692918  0.00403773  0.44225611    -0.78800
O193        O  0.41956769  0.99344008  0.52585625    -0.77200
O194        O  0.45191390  0.99583418  0.55541783    -0.79000
O195        O  0.44705177  0.00732600  0.41032530    -0.79900
O196        O  0.41895855  0.95406872  0.48060134    -0.81300
O197        O  0.41705752  0.04000993  0.48251896    -0.81600
Eu198      Eu  0.43906135  0.99760699  0.48292069     2.39200
O199        O  0.46729527  0.97309825  0.50801751    -0.89100
O200        O  0.46471196  0.02382249  0.45663959    -0.92700
C201        C  0.42390963  0.06387342  0.48117169     1.02000
C202        C  0.42793808  0.93087513  0.48132125     1.01800
C203        C  0.42386005  0.00900187  0.41901046     1.01800
C204        C  0.42818160  0.99308567  0.54908864     0.99600
H205        H  0.45451619  0.96224457  0.44466905     0.29400
O206        O  0.46533003  0.97304845  0.45514243    -1.01500
H207        H  0.45401877  0.03533004  0.51963517     0.29400
O208        O  0.46475554  0.02490403  0.50861115    -1.04000
O209        O  0.53524604  0.92684466  0.48023798    -0.81200
O210        O  0.53141262  0.07326751  0.48010541    -0.80800
O211        O  0.48860309  0.95668714  0.40652709    -0.79200
O212        O  0.49551667  0.95777395  0.55490250    -0.82500
O213        O  0.49210129  0.04231196  0.55544664    -0.80400
O214        O  0.48876484  0.04399685  0.40780710    -0.79000
O215        O  0.56317205  0.00119284  0.43672960    -0.80600
O216        O  0.56586614  0.00442870  0.52072148    -0.82500
O217        O  0.53192999  0.00105042  0.40596209    -0.79200
O218        O  0.53588848  0.00398770  0.55285649    -0.81900
O219        O  0.49177835  0.92698551  0.43868984    -0.77600
O220        O  0.48844701  0.07338091  0.44036003    -0.77700
O221        O  0.49281069  0.07247055  0.52360540    -0.77300
O222        O  0.49468034  0.92706391  0.52357376    -0.80800
O223        O  0.56583950  0.95821705  0.47990241    -0.80200
O224        O  0.56413660  0.04407697  0.47965200    -0.78600
Eu225      Eu  0.49317084  0.94806786  0.48091078     2.39800
Eu226      Eu  0.49002089  0.05109902  0.48160362     2.39600
Eu227      Eu  0.49012043  0.99999123  0.42798469     2.38400
Eu228      Eu  0.49314058  0.99999168  0.53352878     2.39900
Eu229      Eu  0.54387680  0.00087491  0.47947467     2.39800
O230        O  0.51776395  0.02611310  0.50638540    -0.93000
O231        O  0.51762539  0.97465797  0.45371700    -0.91900
C232        C  0.55885786  0.93431965  0.48012414     1.02200
C233        C  0.55543870  0.06734899  0.47973219     1.00900
C234        C  0.48958677  0.93315220  0.41476438     1.00300
C235        C  0.49545779  0.93413019  0.54739019     1.02300
C236        C  0.49298700  0.06579703  0.54747118     1.01200
C237        C  0.48810606  0.06745002  0.41633101     1.00100
C238        C  0.55562791  0.00130927  0.41316708     1.00100
C239        C  0.55921673  0.00552867  0.54456662     1.02800
H240        H  0.52630217  0.03741558  0.44339831     0.30100
O241        O  0.51620195  0.02622860  0.45415869    -1.05100
H242        H  0.53054204  0.96418546  0.51703467     0.32200
O243        O  0.51923784  0.97451886  0.50659819    -1.07700
C244        C  0.27397686  0.96863676  0.77223400     0.03000
C245        C  0.24909246  0.97702830  0.76510160    -0.13200
C246        C  0.24051934  0.97359603  0.73955061     0.00500
C247        C  0.25706314  0.96265359  0.72144189    -0.11700
C248        C  0.28195260  0.95506716  0.72790119     0.03000
C249        C  0.28991297  0.95736563  0.75354345    -0.11100
H250        H  0.23688485  0.98652474  0.77900840     0.08600
H251        H  0.25086217  0.96175701  0.70161666     0.06100
H252        H  0.30918519  0.95166084  0.75880403     0.06000
C253        C  0.73230251  0.97814510  0.75925187     0.03000
C254        C  0.75866977  0.97823147  0.75232629    -0.13200
C255        C  0.76583961  0.97982202  0.72605151     0.00500
C256        C  0.74668424  0.98241699  0.70738549    -0.11700
C257        C  0.72077140  0.98300164  0.71415701     0.03000
C258        C  0.71376528  0.98050891  0.73995286    -0.11100
H259        H  0.77324611  0.97650123  0.76699176     0.08600
H260        H  0.75205277  0.98397291  0.68731113     0.06100
H261        H  0.69362972  0.98121339  0.74521699     0.06000
C262        C  0.27227343  0.99988243  0.23297923     0.03000
C263        C  0.28415813  0.02186579  0.24268285    -0.13200
C264        C  0.27834878  0.03120339  0.26721944     0.00500
C265        C  0.25794169  0.01992065  0.28073632    -0.11700
C266        C  0.24464009  0.99863249  0.27098869     0.03000
C267        C  0.25205797  0.98832494  0.24695360    -0.11100
H268        H  0.29936233  0.03059129  0.23149549     0.08600
H269        H  0.25314205  0.02661454  0.29980221     0.06100
H270        H  0.24302878  0.97106527  0.23979735     0.06000
O271        O  0.58568938  0.98784015  0.04175716    -0.80300
O272        O  0.43875163  0.98491990  0.05056377    -0.81800
O273        O  0.51754458  0.02746260  0.07853533    -0.78800
O274        O  0.50726717  0.94407828  0.07878644    -0.77200
O275        O  0.50620184  0.91381567  0.04698783    -0.79000
O276        O  0.51420749  0.05746961  0.04672019    -0.79900
O277        O  0.47056642  0.98671537  0.08070180    -0.81300
O278        O  0.55816969  0.98561826  0.07591805    -0.81600
Eu279      Eu  0.51306300  0.98563186  0.05775904     2.39200
O280        O  0.48618933  0.96034824  0.03170228    -0.89100
O281        O  0.53650844  0.01151811  0.02914603    -0.92700
C282        C  0.58113138  0.98731775  0.06606691     1.02000
C283        C  0.44655084  0.98569168  0.07403987     1.01800
C284        C  0.51773096  0.05073845  0.07022411     1.01800
C285        C  0.50431081  0.92092293  0.07064449     0.99600
H286        H  0.47502163  0.02227054  0.04411278     0.29400
O287        O  0.48514364  0.01155841  0.03285600    -1.01500
H288        H  0.54900579  0.94848834  0.04005797     0.29400
O289        O  0.53776534  0.95920739  0.02999318    -1.04000
O290        O  0.43443127  0.98367526  0.96662737    -0.81200
O291        O  0.58102320  0.98455002  0.95873935    -0.80800
O292        O  0.46640466  0.05923769  0.00860326    -0.79200
O293        O  0.46748313  0.91190203  0.00699646    -0.82500
O294        O  0.55317328  0.91285988  0.00260682    -0.80400
O295        O  0.55182560  0.05924807  0.00321385    -0.79000
O296        O  0.50603780  0.02854262  0.93191846    -0.80600
O297        O  0.50567623  0.94466307  0.93247097    -0.82500
O298        O  0.50695923  0.05922953  0.96322032    -0.79200
O299        O  0.50766484  0.91249721  0.96219222    -0.81900
O300        O  0.43596210  0.02768762  0.00833053    -0.77600
O301        O  0.58282169  0.02826257  0.00162517    -0.77700
O302        O  0.58363463  0.94432560  0.00076670    -0.77300
O303        O  0.43680542  0.94316841  0.00915749    -0.80800
O304        O  0.46303703  0.98521887  0.93323785    -0.80200
O305        O  0.54868270  0.98391270  0.92919650    -0.78600
Eu306      Eu  0.45785250  0.98564636  0.00756872     2.39800
Eu307      Eu  0.56157136  0.98597459  0.00179859     2.39600
Eu308      Eu  0.50913659  0.03782870  0.00487461     2.38400
Eu309      Eu  0.51016906  0.93351226  0.00454677     2.39900
Eu310      Eu  0.50689016  0.98641883  0.95258548     2.39800
O311        O  0.53421902  0.96018293  0.97713408    -0.93000
O312        O  0.48169742  0.01221239  0.97990964    -0.91900
C313        C  0.43990538  0.98375565  0.94242032     1.02200
C314        C  0.57278028  0.98352761  0.93540453     1.00900
C315        C  0.44273538  0.05151928  0.00910414     1.00300
C316        C  0.44378104  0.91937666  0.00868294     1.02300
C317        C  0.57679859  0.92054380  0.00124481     1.01200
C318        C  0.57560678  0.05195956  0.00231191     1.00100
C319        C  0.50612659  0.05207191  0.93954231     1.00100
C320        C  0.50589483  0.92087015  0.93890211     1.02800
H321        H  0.54458582  0.02301925  0.96602668     0.30100
O322        O  0.53435620  0.01232914  0.97721161    -1.05100
H323        H  0.47150809  0.94912019  0.97014966     0.32200
O324        O  0.48276211  0.95986885  0.98015926    -1.07700
C325        C  0.49447929  0.23081659  0.24461828     0.03000
C326        C  0.51249822  0.21598394  0.23139938    -0.13200
C327        C  0.52365052  0.22447033  0.20849699     0.00500
C328        C  0.51708516  0.24866471  0.19897401    -0.11700
C329        C  0.49877973  0.26400308  0.21147835     0.03000
C330        C  0.48714307  0.25491483  0.23442920    -0.11100
H331        H  0.51683525  0.19695177  0.23853299     0.08600
H332        H  0.52546758  0.25521440  0.18106176     0.06100
H333        H  0.47271252  0.26632552  0.24410471     0.06000
C334        C  0.45885240  0.73171020  0.21502774     0.03000
C335        C  0.47144578  0.74265792  0.23643544    -0.13200
C336        C  0.46206912  0.76573755  0.24717448     0.00500
C337        C  0.44221394  0.77885612  0.23472209    -0.11700
C338        C  0.43098416  0.76931517  0.21214928     0.03000
C339        C  0.43768400  0.74443915  0.20438991    -0.11100
H340        H  0.48803389  0.73330156  0.24467895     0.08600
H341        H  0.43733920  0.79768988  0.24184050     0.06100
H342        H  0.42815917  0.73575403  0.18817427     0.06000
C343        C  0.49222823  0.72432085  0.74114716     0.03000
C344        C  0.49217618  0.73552015  0.71626703    -0.13200
C345        C  0.49015394  0.76262373  0.71360617     0.00500
C346        C  0.48899216  0.77779105  0.73591972    -0.11700
C347        C  0.48962730  0.76670250  0.76039447     0.03000
C348        C  0.49114204  0.74018654  0.76270839    -0.11100
H349        H  0.49314251  0.72343743  0.69939604     0.08600
H350        H  0.48776134  0.79845987  0.73421834     0.06100
H351        H  0.49196367  0.73164455  0.78168480     0.06000
C352        C  0.49301330  0.22603295  0.72106313     0.03000
C353        C  0.49377158  0.20609259  0.73896396    -0.13200
C354        C  0.49569588  0.21102596  0.76514875     0.00500
C355        C  0.49694628  0.23637693  0.77372870    -0.11700
C356        C  0.49618977  0.25691010  0.75635850     0.03000
C357        C  0.49402654  0.25177857  0.72970041    -0.11100
H358        H  0.49325277  0.18639438  0.73230527     0.08600
H359        H  0.49843529  0.24022746  0.79413310     0.06100
H360        H  0.49369369  0.26739149  0.71601616     0.06000
O361        O  0.00960213  0.40992393  0.04089006    -0.80300
O362        O  0.00750169  0.55636863  0.04652058    -0.81800
O363        O  0.05274974  0.47630524  0.07376925    -0.78800
O364        O  0.96876634  0.47863369  0.07633494    -0.77200
O365        O  0.93684008  0.48072912  0.04632540    -0.79000
O366        O  0.08283655  0.47883007  0.04181879    -0.79900
O367        O  0.00914949  0.52568515  0.07778442    -0.81300
O368        O  0.01149870  0.43921538  0.07351024    -0.81600
Eu369      Eu  0.01014931  0.48339759  0.05479773     2.39200
O370        O  0.98293251  0.51022577  0.03032722    -0.89100
O371        O  0.03498827  0.45909882  0.02612160    -0.92700
C372        C  0.01108793  0.41585791  0.06489485     1.02000
C373        C  0.00786074  0.54941348  0.07028642     1.01800
C374        C  0.07598925  0.47456816  0.06522801     1.01800
C375        C  0.94503652  0.47772812  0.06947141     0.99600
H376        H  0.04661587  0.52111380  0.03978556     0.29400
O377        O  0.03574592  0.51071254  0.02896888    -1.01500
H378        H  0.97333576  0.44705550  0.03814262     0.29400
O379        O  0.98349179  0.45864279  0.02785993    -1.04000
O380        O  0.01033763  0.56019181  0.96262579    -0.81200
O381        O  0.00726440  0.41386937  0.95729223    -0.80800
O382        O  0.08199325  0.52905952  0.00166135    -0.79200
O383        O  0.93445489  0.52828667  0.00554176    -0.82500
O384        O  0.93473190  0.44264454  0.00166367    -0.80400
O385        O  0.08241126  0.44237362  0.00035386    -0.79000
O386        O  0.04846195  0.48700667  0.92869623    -0.80600
O387        O  0.96416570  0.48728216  0.93031026    -0.82500
O388        O  0.08097384  0.48761311  0.95820411    -0.79200
O389        O  0.93420383  0.48608267  0.96244754    -0.81900
O390        O  0.04957485  0.55864054  0.00197843    -0.77600
O391        O  0.05080387  0.41198726  0.00103802    -0.77700
O392        O  0.96657451  0.41246418  0.00072875    -0.77300
O393        O  0.96631712  0.55834131  0.00309535    -0.80800
O394        O  0.01079422  0.53044668  0.93036583    -0.80200
O395        O  0.00596995  0.44554417  0.92705574    -0.78600
Eu396      Eu  0.00820831  0.53677938  0.00385899     2.39800
Eu397      Eu  0.00872579  0.43353461  0.00015120     2.39600
Eu398      Eu  0.06126704  0.48557606  0.00088385     2.38400
Eu399      Eu  0.95605282  0.48539627  0.00377859     2.39900
Eu400      Eu  0.00698501  0.48701546  0.95005329     2.39800
O401        O  0.98161416  0.46026647  0.97609345    -0.93000
O402        O  0.03359216  0.51158233  0.97667729    -0.91900
C403        C  0.01175465  0.55386951  0.93865655     1.02200
C404        C  0.00623036  0.42167720  0.93379421     1.00900
C405        C  0.07351161  0.55247981  0.00116397     1.00300
C406        C  0.94244000  0.55180762  0.00403646     1.02300
C407        C  0.94271137  0.41910604  0.00119218     1.01200
C408        C  0.07466608  0.41870659  0.00110848     1.00100
C409        C  0.07231439  0.48762218  0.93502929     1.00100
C410        C  0.94077281  0.48672921  0.93858037     1.02800
H411        H  0.04481539  0.44977249  0.96311693     0.30100
O412        O  0.03441711  0.46028604  0.97434809    -1.05100
H413        H  0.97061934  0.52333583  0.96714919     0.32200
O414        O  0.98130223  0.51222356  0.97738342    -1.07700
C415        C  0.75400263  0.49998392  0.25259607     0.03000
C416        C  0.72952152  0.50541427  0.24201307    -0.13200
C417        C  0.72314092  0.49582062  0.21725518     0.00500
C418        C  0.74164479  0.48209993  0.20326857    -0.11700
C419        C  0.76616487  0.47795503  0.21321675     0.03000
C420        C  0.77170672  0.48607223  0.23806843    -0.11100
H421        H  0.71573995  0.51663853  0.25279083     0.08600
H422        H  0.73737631  0.47615000  0.18380104     0.06100
H423        H  0.79054481  0.48227304  0.24602658     0.06000
C424        C  0.26097446  0.49608392  0.21818969     0.03000
C425        C  0.25436707  0.50547154  0.24287245    -0.13200
C426        C  0.23330758  0.49468188  0.25625787     0.00500
C427        C  0.21982297  0.47427005  0.24530140    -0.11700
C428        C  0.22509039  0.46581216  0.22032311     0.03000
C429        C  0.24591510  0.47672891  0.20710979    -0.11100
H430        H  0.26499755  0.52122507  0.25120014     0.08600
H431        H  0.20419872  0.46582517  0.25613059     0.06100
H432        H  0.25018681  0.47081710  0.18764437     0.06000
C433        C  0.26186717  0.49383988  0.74417431     0.03000
C434        C  0.24494278  0.50389903  0.76243719    -0.13200
C435        C  0.22005614  0.51123120  0.75585268     0.00500
C436        C  0.21228119  0.50931127  0.73028164    -0.11700
C437        C  0.22834412  0.49852844  0.71158501     0.03000
C438        C  0.25341372  0.49049448  0.71852471    -0.11100
H439        H  0.25103594  0.50488080  0.78230000     0.08600
H440        H  0.19302643  0.51511403  0.72500646     0.06100
H441        H  0.26594620  0.48180430  0.70438326     0.06000
C442        C  0.76579736  0.48709940  0.72080388     0.03000
C443        C  0.74031483  0.49333629  0.72838104    -0.13200
C444        C  0.73408609  0.49570489  0.75485365     0.00500
C445        C  0.75331644  0.49177724  0.77315875    -0.11700
C446        C  0.77849432  0.48604287  0.76598638     0.03000
C447        C  0.78448557  0.48367607  0.73991234    -0.11100
H448        H  0.72563657  0.49622939  0.71400286     0.08600
H449        H  0.74841106  0.49270560  0.79337718     0.06100
H450        H  0.80421108  0.48013880  0.73433285     0.06000
C451        C  0.23609327  0.24612916  0.01437942     0.03000
C452        C  0.24348234  0.21988756  0.01575030    -0.13200
C453        C  0.26938788  0.21337081  0.02159146     0.00500
C454        C  0.28706598  0.23317163  0.02592082    -0.11700
C455        C  0.27986755  0.25882420  0.02433542     0.03000
C456        C  0.25456218  0.26506726  0.01859121    -0.11100
H457        H  0.22949842  0.20496332  0.01225843     0.08600
H458        H  0.30693294  0.22857635  0.02995603     0.06100
H459        H  0.24915569  0.28507116  0.01692889     0.06000
O460        O  0.48737710  0.45986321  0.05293447    -0.80300
O461        O  0.49568359  0.45806543  0.90750933    -0.81800
O462        O  0.45068053  0.42773727  0.98013088    -0.78800
O463        O  0.53494922  0.42889897  0.98320362    -0.77200
O464        O  0.56494334  0.46088277  0.98416411    -0.79000
O465        O  0.41840343  0.45750155  0.97933322    -0.79900
O466        O  0.49460474  0.42648326  0.93788309    -0.81300
O467        O  0.49024206  0.42737302  0.02363570    -0.81600
Eu468      Eu  0.49239958  0.44837619  0.98058448     2.39200
O469        O  0.51956000  0.47461750  0.95577412    -0.89100
O470        O  0.46424804  0.47458975  0.00449636    -0.92700
C471        C  0.48860019  0.43585125  0.04700169     1.02000
C472        C  0.49528501  0.43430579  0.91422765     1.01800
C473        C  0.42686592  0.43426823  0.98014621     1.01800
C474        C  0.55825267  0.43716378  0.98414185     0.99600
H475        H  0.45738303  0.46271789  0.94200103     0.29400
O476        O  0.46722159  0.47382167  0.95309834    -1.01500
H477        H  0.52645063  0.46528797  0.01911298     0.29400
O478        O  0.51627911  0.47551717  0.00753243    -1.04000
O479        O  0.49504438  0.54112678  0.90539597    -0.81200
O480        O  0.48599819  0.54375787  0.05142432    -0.80800
O481        O  0.42019167  0.49615618  0.93306569    -0.79200
O482        O  0.56728465  0.50051330  0.94167206    -0.82500
O483        O  0.56249879  0.50266448  0.02634479    -0.80400
O484        O  0.41569366  0.50243299  0.01938394    -0.79000
O485        O  0.44946694  0.57323137  0.96828376    -0.80600
O486        O  0.53266528  0.57522485  0.97984379    -0.82500
O487        O  0.41927646  0.54140648  0.96680282    -0.79200
O488        O  0.56319170  0.54390291  0.98349088    -0.81900
O489        O  0.45383593  0.49899125  0.90488021    -0.77600
O490        O  0.44580194  0.50199507  0.05121501    -0.77700
O491        O  0.52917037  0.50171006  0.05496781    -0.77300
O492        O  0.53793986  0.49898753  0.90922444    -0.80800
O493        O  0.49300022  0.57350136  0.93491160    -0.80200
O494        O  0.48701088  0.57550685  0.02110292    -0.78600
Eu495      Eu  0.49463431  0.49994391  0.92825627     2.39800
Eu496      Eu  0.48829327  0.50168027  0.03113794     2.39600
Eu497      Eu  0.43879993  0.49984308  0.97707845     2.38400
Eu498      Eu  0.54323686  0.50189299  0.98277938     2.39900
Eu499      Eu  0.49078501  0.55363568  0.97855107     2.39800
O500        O  0.51543374  0.52819895  0.00670197    -0.93000
O501        O  0.46694311  0.52547156  0.95271577    -0.91900
C502        C  0.49423000  0.56509999  0.91147854     1.02200
C503        C  0.48555251  0.56751574  0.04465933     1.00900
C504        C  0.42966157  0.49711681  0.91001209     1.00300
C505        C  0.56124450  0.49951935  0.91759813     1.02300
C506        C  0.55338601  0.50211535  0.04949481     1.01200
C507        C  0.42235071  0.50267548  0.04343053     1.00100
C508        C  0.42668714  0.56481748  0.96359442     1.00100
C509        C  0.55608244  0.56747008  0.98194440     1.02800
H510        H  0.45155822  0.53826498  0.01325854     0.30100
O511        O  0.46309168  0.52744745  0.00353527    -1.05100
H512        H  0.53002602  0.53769101  0.94415281     0.32200
O513        O  0.51881103  0.52729316  0.95465596    -1.07700
C514        C  0.74539636  0.75668948  0.99426191     0.03000
C515        C  0.72899610  0.74112824  0.97980336    -0.13200
C516        C  0.73567809  0.71593271  0.97351370     0.00500
C517        C  0.76012492  0.70702982  0.98022494    -0.11700
C518        C  0.77665209  0.72179318  0.99536565     0.03000
C519        C  0.76927518  0.74687726  0.00258217    -0.11100
H520        H  0.71007831  0.74832642  0.97513534     0.08600
H521        H  0.76594573  0.68780301  0.97492379     0.06100
H522        H  0.78158188  0.75829274  0.01478189     0.06000
C523        C  0.27164806  0.75721950  0.98937935     0.03000
C524        C  0.28609996  0.74395018  0.97093013    -0.13200
C525        C  0.27661654  0.72183792  0.95905801     0.00500
C526        C  0.25184416  0.71352683  0.96514249    -0.11700
C527        C  0.23718893  0.72543153  0.98432139     0.03000
C528        C  0.24717617  0.74757679  0.99664847    -0.11100
H529        H  0.30536803  0.75049930  0.96664650     0.08600
H530        H  0.24428936  0.69661214  0.95577238     0.06100
H531        H  0.23622917  0.75700572  0.01160710     0.06000
C532        C  0.76676147  0.25883552  0.99637303     0.03000
C533        C  0.74605611  0.27596026  0.99592178    -0.13200
C534        C  0.72073785  0.26710900  0.99520137     0.00500
C535        C  0.71610651  0.24075327  0.99494440    -0.11700
C536        C  0.73628592  0.22305710  0.99543265     0.03000
C537        C  0.76191279  0.23209744  0.99637770    -0.11100
H538        H  0.74981903  0.29639108  0.99534095     0.08600
H539        H  0.69650260  0.23379436  0.99479094     0.06100
H540        H  0.77772676  0.21864724  0.99649619     0.06000
C541        C  0.69906766  0.28535209  0.99422286    -0.03300
C542        C  0.67783479  0.28039180  0.97839885    -0.05900
C543        C  0.65751515  0.29766331  0.97726960    -0.21000
C544        C  0.65830393  0.32038454  0.99147697     0.24700
C545        C  0.67922999  0.32524194  0.00769860    -0.18600
C546        C  0.69944238  0.30781687  0.00907373    -0.08500
C547        C  0.63680202  0.33843938  0.98927314    -0.18800
C548        C  0.64015422  0.36387822  0.99068763    -0.23600
C549        C  0.61870883  0.38215147  0.98851604     0.26800
C550        C  0.62406610  0.40751102  0.98153426    -0.20400
C551        C  0.60435217  0.42542420  0.97998135    -0.10000
C552        C  0.57893346  0.41819380  0.98538643    -0.10600
C553        C  0.57356177  0.39284771  0.99243162    -0.03500
C554        C  0.59328340  0.37501776  0.99419863    -0.18600
H555        H  0.67711535  0.26336889  0.96653959     0.10500
H556        H  0.64140337  0.29356234  0.96482648     0.10500
H557        H  0.67984260  0.34227743  0.01954739     0.10200
H558        H  0.71524884  0.31178900  0.02191977     0.11300
H559        H  0.61814438  0.33049590  0.98465227     0.11400
H560        H  0.65941372  0.37163463  0.99251969     0.13300
H561        H  0.64353192  0.41345799  0.97725922     0.09800
H562        H  0.60902583  0.44489142  0.97446291     0.11900
H563        H  0.55419546  0.38689112  0.99710692     0.08500
H564        H  0.58849876  0.35591354  0.00064197     0.11300
C565        C  0.40821575  0.58280584  0.95181455    -0.03300
C566        C  0.38299221  0.57485830  0.94673868    -0.05900
C567        C  0.36616574  0.59079265  0.93349237    -0.21000
C568        C  0.37399464  0.61513269  0.92518454     0.24700
C569        C  0.39945749  0.62290580  0.92954522    -0.18600
C570        C  0.41635222  0.60692134  0.94281814    -0.08500
C571        C  0.35406006  0.63250837  0.91489145    -0.18800
C572        C  0.35528470  0.65810975  0.91745497    -0.23600
C573        C  0.33193752  0.67363008  0.92182565     0.26800
C574        C  0.33278055  0.70020785  0.91796195    -0.20400
C575        C  0.31363142  0.71598296  0.92824786    -0.10000
C576        C  0.29373293  0.70541812  0.94319757    -0.10600
C577        C  0.29215398  0.67862681  0.94554818    -0.03500
C578        C  0.31085239  0.66294853  0.93485883    -0.18600
H579        H  0.37619033  0.55624073  0.95291993     0.10500
H580        H  0.34665190  0.58434289  0.93043092     0.10500
H581        H  0.40646807  0.64122816  0.92285282     0.10200
H582        H  0.43589892  0.61333378  0.94567134     0.11300
H583        H  0.33572697  0.62387869  0.91003965     0.11400
H584        H  0.37339294  0.66751681  0.92137993     0.13300
H585        H  0.34895015  0.70886439  0.90814474     0.09800
H586        H  0.31513439  0.73649829  0.92557609     0.11900
H587        H  0.27765756  0.66964319  0.95742520     0.08500
H588        H  0.30987528  0.64267073  0.93907955     0.11300
C589        C  0.57672611  0.58655081  0.98228207    -0.03300
C590        C  0.59933604  0.58108684  0.99574907    -0.05900
C591        C  0.62016671  0.59762820  0.99434704    -0.21000
C592        C  0.61900247  0.61971245  0.97912564     0.24700
C593        C  0.59614122  0.62565098  0.96611923    -0.18600
C594        C  0.57502881  0.60918498  0.96783690    -0.08500
C595        C  0.64201371  0.63608116  0.97798365    -0.18800
C596        C  0.64821883  0.65117594  0.95797204    -0.23600
C597        C  0.67233950  0.66611924  0.95798480     0.26800
C598        C  0.67312936  0.69039135  0.94650232    -0.20400
C599        C  0.69464585  0.70611812  0.94966455    -0.10000
C600        C  0.71561116  0.69778331  0.96453635    -0.10600
C601        C  0.71544634  0.67257480  0.97406095    -0.03500
C602        C  0.69427808  0.65684056  0.97049114    -0.18600
H603        H  0.60100304  0.56382447  0.00719183     0.10500
H604        H  0.63749596  0.59284316  0.00474781     0.10500
H605        H  0.59446086  0.64294288  0.95479506     0.10200
H606        H  0.55773823  0.61369374  0.95727003     0.11300
H607        H  0.65493424  0.63480981  0.99425364     0.11400
H608        H  0.63528677  0.65322902  0.94181182     0.13300
H609        H  0.65663122  0.69766515  0.93621071     0.09800
H610        H  0.69436935  0.72514294  0.94139268     0.11900
H611        H  0.73091943  0.66531069  0.98578378     0.08500
H612        H  0.69482356  0.63769151  0.97845150     0.11300
C613        C  0.29911057  0.27935925  0.02644248    -0.03300
C614        C  0.29311215  0.30235553  0.03912825    -0.05900
C615        C  0.30943280  0.32340789  0.03710987    -0.21000
C616        C  0.33191568  0.32170178  0.02244113     0.24700
C617        C  0.33904929  0.29796037  0.01178400    -0.18600
C618        C  0.32263022  0.27705373  0.01352984    -0.08500
C619        C  0.34695243  0.34515073  0.01764561    -0.18800
C620        C  0.36106052  0.34801833  0.99625947    -0.23600
C621        C  0.37658559  0.37090852  0.99117240     0.26800
C622        C  0.39988549  0.36769678  0.97823695    -0.20400
C623        C  0.41573905  0.38860540  0.97380686    -0.10000
C624        C  0.40836156  0.41318490  0.98194261    -0.10600
C625        C  0.38441417  0.41667252  0.99382596    -0.03500
C626        C  0.36861487  0.39557668  0.99855439    -0.18600
H627        H  0.27532846  0.30432823  0.04975353     0.10500
H628        H  0.30390629  0.34136007  0.04598909     0.10500
H629        H  0.35695329  0.29555252  0.00151775     0.10200
H630        H  0.32778425  0.25951836  0.00365926     0.11300
H631        H  0.34560126  0.36067699  0.03147591     0.11400
H632        H  0.36226824  0.33270299  0.98222245     0.13300
H633        H  0.40616958  0.34883098  0.97220429     0.09800
H634        H  0.43404275  0.38544940  0.96441647     0.11900
H635        H  0.37836551  0.43546386  0.00028090     0.08500
H636        H  0.35029894  0.39856176  0.00793692     0.11300
C637        C  0.70778950  0.50077467  0.76505945    -0.03300
C638        C  0.68808184  0.48285453  0.76133771    -0.05900
C639        C  0.66635292  0.48283309  0.77741052    -0.21000
C640        C  0.66400831  0.50049466  0.79773349     0.24700
C641        C  0.68274123  0.51975920  0.80004602    -0.18600
C642        C  0.70431915  0.51987744  0.78390408    -0.08500
C643        C  0.64209119  0.49803604  0.81625947    -0.18800
C644        C  0.64328445  0.50561756  0.84112273    -0.23600
C645        C  0.62197022  0.50260067  0.86033499     0.26800
C646        C  0.62751016  0.50514410  0.88665546    -0.20400
C647        C  0.60804342  0.50351183  0.90527647    -0.10000
C648        C  0.58234619  0.49956173  0.89807854    -0.10600
C649        C  0.57683435  0.49673425  0.87175986    -0.03500
C650        C  0.59629915  0.49828391  0.85316533    -0.18600
H651        H  0.69037410  0.46769877  0.74731616     0.10500
H652        H  0.65201812  0.46803295  0.77486735     0.10500
H653        H  0.68116928  0.53434953  0.81473010     0.10200
H654        H  0.71923699  0.53393647  0.78724881     0.11300
H655        H  0.62521167  0.48798541  0.80950012     0.11400
H656        H  0.66115542  0.51360124  0.84819040     0.13300
H657        H  0.64702203  0.50859605  0.89287123     0.09800
H658        H  0.61310458  0.50584679  0.92529049     0.11900
H659        H  0.55731180  0.49371004  0.86538689     0.08500
H660        H  0.59090062  0.49675376  0.83321126     0.11300
C661        C  0.41210732  0.49618831  0.88741437    -0.03300
C662        C  0.42021629  0.50672423  0.86387843    -0.05900
C663        C  0.40459585  0.50568051  0.84211896    -0.21000
C664        C  0.38046886  0.49375038  0.84293538     0.24700
C665        C  0.37218416  0.48314538  0.86650094    -0.18600
C666        C  0.38780863  0.48446689  0.88851790    -0.08500
C667        C  0.36428056  0.49435058  0.81915868    -0.18800
C668        C  0.34396046  0.47889113  0.81464733    -0.23600
C669        C  0.32672837  0.48104711  0.79164871     0.26800
C670        C  0.30966343  0.46087175  0.78622071    -0.20400
C671        C  0.29036210  0.46364613  0.76766317    -0.10000
C672        C  0.28762166  0.48668879  0.75398833    -0.10600
C673        C  0.30565692  0.50625369  0.75815036    -0.03500
C674        C  0.32497758  0.50353019  0.77669724    -0.18600
H675        H  0.43869507  0.51609845  0.86228089     0.10500
H676        H  0.41147517  0.51429020  0.82446780     0.10500
H677        H  0.35350712  0.47428909  0.86821790     0.10200
H678        H  0.38100160  0.47610174  0.90630270     0.11300
H679        H  0.36994181  0.50797123  0.80447698     0.11400
H680        H  0.33951255  0.46390467  0.82839368     0.13300
H681        H  0.31032050  0.44338993  0.79741405     0.09800
H682        H  0.27613660  0.44865266  0.76564442     0.11900
H683        H  0.30331126  0.52461586  0.74874004     0.08500
H684        H  0.33715286  0.51985983  0.78043034     0.11300
C685        C  0.28293038  0.50604997  0.20271773    -0.03300
C686        C  0.30833076  0.50144258  0.21033677    -0.05900
C687        C  0.32872653  0.50479732  0.19289892    -0.21000
C688        C  0.32415559  0.51252952  0.16740024     0.24700
C689        C  0.29884840  0.51883598  0.16041286    -0.18600
C690        C  0.27853410  0.51546381  0.17779659    -0.08500
C691        C  0.34597222  0.51306990  0.14851846    -0.18800
C692        C  0.34283990  0.50928386  0.12294370    -0.23600
C693        C  0.36393476  0.50770746  0.10322772     0.26800
C694        C  0.35718512  0.50353794  0.07737553    -0.20400
C695        C  0.37590654  0.50183900  0.05799041    -0.10000
C696        C  0.40208434  0.50416417  0.06386905    -0.10600
C697        C  0.40891575  0.50811064  0.08979702    -0.03500
C698        C  0.39019509  0.50990408  0.10916620    -0.18600
H699        H  0.31224021  0.49374703  0.22923531     0.10500
H700        H  0.34801166  0.50007999  0.19897984     0.10500
H701        H  0.29452524  0.52584236  0.14136649     0.10200
H702        H  0.25911353  0.51909182  0.17139396     0.11300
H703        H  0.36509226  0.51493532  0.15638236     0.11400
H704        H  0.32353284  0.50624325  0.11584034     0.13300
H705        H  0.33720209  0.50160513  0.07206700     0.09800
H706        H  0.36983360  0.49864276  0.03838966     0.11900
H707        H  0.42886551  0.51002764  0.09522479     0.08500
H708        H  0.39659495  0.51300962  0.12861810     0.11300
C709        C  0.57167742  0.50147162  0.07152951    -0.03300
C710        C  0.56396531  0.49062121  0.09503129    -0.05900
C711        C  0.58074733  0.48960348  0.11594211    -0.21000
C712        C  0.60561746  0.49983375  0.11430811     0.24700
C713        C  0.61344609  0.51093118  0.09085692    -0.18600
C714        C  0.59671459  0.51151403  0.06962675    -0.08500
C715        C  0.62307261  0.49674027  0.13693678    -0.18800
C716        C  0.64287760  0.51247351  0.14267690    -0.23600
C717        C  0.66054878  0.50855420  0.16515215     0.26800
C718        C  0.67580574  0.52911571  0.17371561    -0.20400
C719        C  0.69450146  0.52560043  0.19281927    -0.10000
C720        C  0.69859026  0.50136119  0.20373872    -0.10600
C721        C  0.68283101  0.48094129  0.19585742    -0.03500
C722        C  0.66399217  0.48446190  0.17694690    -0.18600
H723        H  0.54497450  0.48244980  0.09717294     0.10500
H724        H  0.57421781  0.48070483  0.13357897     0.10500
H725        H  0.63264229  0.51853050  0.08865065     0.10200
H726        H  0.60328942  0.51997375  0.05179592     0.11300
H727        H  0.61846915  0.48124844  0.15004012     0.11400
H728        H  0.64606689  0.52925356  0.13075614     0.13300
H729        H  0.67388459  0.54782645  0.16493289     0.09800
H730        H  0.70696968  0.54143029  0.19779818     0.11900
H731        H  0.68618416  0.46183650  0.20326803     0.08500
H732        H  0.65331408  0.46786204  0.17066175     0.11300
C733        C  0.80021848  0.70881949  0.00460274    -0.03300
C734        C  0.79860347  0.69225965  0.02580907    -0.05900
C735        C  0.81695255  0.67290242  0.02948355    -0.21000
C736        C  0.83725545  0.66940347  0.01192546     0.24700
C737        C  0.83980287  0.68736235  0.99174973    -0.18600
C738        C  0.82139438  0.70665181  0.98809444    -0.08500
C739        C  0.85425090  0.64619679  0.01478018    -0.18800
C740        C  0.87269785  0.63922544  0.99780238    -0.23600
C741        C  0.88959149  0.61607793  0.00020676     0.26800
C742        C  0.91310392  0.61619985  0.98699732    -0.20400
C743        C  0.92985200  0.59530944  0.98830579    -0.10000
C744        C  0.92344996  0.57322320  0.00242663    -0.10600
C745        C  0.89951324  0.57254056  0.01502752    -0.03500
C746        C  0.88281223  0.59383938  0.01412027    -0.18600
H747        H  0.78206240  0.69305531  0.03842899     0.10500
H748        H  0.81444625  0.65972546  0.04536398     0.10500
H749        H  0.85522161  0.68620236  0.97794510     0.10200
H750        H  0.82271791  0.71877332  0.97125954     0.11300
H751        H  0.85107013  0.63417238  0.03149097     0.11400
H752        H  0.87655857  0.65134320  0.98139053     0.13300
H753        H  0.91876472  0.63276584  0.97579092     0.09800
H754        H  0.94792286  0.59641084  0.97803246     0.11900
H755        H  0.89394925  0.55578038  0.02596093     0.08500
H756        H  0.86456575  0.59266310  0.02399395     0.11300
C757        C  0.92359861  0.39780600  0.00186677    -0.03300
C758        C  0.93068878  0.37397439  0.01233705    -0.05900
C759        C  0.91323744  0.35363566  0.01353042    -0.21000
C760        C  0.88834334  0.35618628  0.00372176     0.24700
C761        C  0.88114087  0.37993198  0.99295059    -0.18600
C762        C  0.89853460  0.40060955  0.99225592    -0.08500
C763        C  0.87019724  0.33410080  0.00636332    -0.18800
C764        C  0.85156767  0.32875411  0.98925298    -0.23600
C765        C  0.83327788  0.30670592  0.99165660     0.26800
C766        C  0.82132635  0.29742272  0.96937371    -0.20400
C767        C  0.80143939  0.27941065  0.97087990    -0.10000
C768        C  0.79281996  0.27028281  0.99473781    -0.10600
C769        C  0.80546083  0.27856966  0.01706046    -0.03500
C770        C  0.82565558  0.29643847  0.01555904    -0.18600
H771        H  0.94973661  0.37113051  0.02009867     0.10500
H772        H  0.91928796  0.33571416  0.02208938     0.10500
H773        H  0.86192778  0.38274741  0.98564568     0.10200
H774        H  0.89246833  0.41867841  0.98403946     0.11300
H775        H  0.87335509  0.32098528  0.02222338     0.11400
H776        H  0.85006356  0.34060302  0.97217494     0.13300
H777        H  0.82665258  0.30497513  0.95073489     0.09800
H778        H  0.79149260  0.27397348  0.95347842     0.11900
H779        H  0.79856366  0.27255139  0.03574714     0.08500
H780        H  0.83400022  0.30340844  0.03322438     0.11300
C781        C  0.09180432  0.57438157  0.99859521    -0.03300
C782        C  0.08376215  0.59658389  0.98553229    -0.05900
C783        C  0.09999917  0.61772992  0.98282151    -0.21000
C784        C  0.12463263  0.61776132  0.99358718     0.24700
C785        C  0.13285502  0.59564530  0.00684693    -0.18600
C786        C  0.11665216  0.57405657  0.00911395    -0.08500
C787        C  0.14130606  0.64072931  0.98909274    -0.18800
C788        C  0.15986025  0.64894062  0.00525754    -0.23600
C789        C  0.17644710  0.67216016  0.00062332     0.26800
C790        C  0.19234785  0.68119036  0.02053154    -0.20400
C791        C  0.21036597  0.70085588  0.01620588    -0.10000
C792        C  0.21292134  0.71203996  0.99180388    -0.10600
C793        C  0.19582357  0.70427553  0.97241034    -0.03500
C794        C  0.17803941  0.68455166  0.97660889    -0.18600
H795        H  0.06485636  0.59750922  0.97698400     0.10500
H796        H  0.09316808  0.63428626  0.97230880     0.10500
H797        H  0.15192532  0.59477438  0.01495381     0.10200
H798        H  0.12339746  0.55729747  0.01932420     0.11300
H799        H  0.13679944  0.65202162  0.97225144     0.11400
H800        H  0.16283230  0.63843669  0.02299726     0.13300
H801        H  0.19165119  0.67218961  0.03925658     0.09800
H802        H  0.22360591  0.70590935  0.03136895     0.11900
H803        H  0.19763289  0.71217397  0.95325050     0.08500
H804        H  0.16671004  0.67835322  0.96043940     0.11300
C805        C  0.09416509  0.39747397  0.00217815    -0.03300
C806        C  0.12022868  0.40182502  0.99661051    -0.05900
C807        C  0.13796352  0.38147708  0.99653937    -0.21000
C808        C  0.13037108  0.35620077  0.00238353     0.24700
C809        C  0.10440522  0.35192363  0.00856209    -0.18600
C810        C  0.08663893  0.37222036  0.00842985    -0.08500
C811        C  0.14990379  0.33499627  0.00057585    -0.18800
C812        C  0.14723786  0.31107155  0.01051044    -0.23600
C813        C  0.16776625  0.29088093  0.00872498     0.26800
C814        C  0.17013616  0.27236987  0.02828730    -0.20400
C815        C  0.19098797  0.25518793  0.02865226    -0.10000
C816        C  0.20966179  0.25577599  0.00916425    -0.10600
C817        C  0.20598472  0.27274812  0.98844527    -0.03500
C818        C  0.18536415  0.29003741  0.98819577    -0.18600
H819        H  0.12687063  0.42088820  0.99177783     0.10500
H820        H  0.15777315  0.38551678  0.99166864     0.10500
H821        H  0.09747429  0.33287765  0.01287792     0.10200
H822        H  0.06681841  0.36800883  0.01306906     0.11300
H823        H  0.16790581  0.33981150  0.99121958     0.11400
H824        H  0.13035213  0.30651084  0.02182756     0.13300
H825        H  0.15670992  0.27225290  0.04419427     0.09800
H826        H  0.19363436  0.24290946  0.04519764     0.11900
H827        H  0.22031185  0.27401338  0.97338534     0.08500
H828        H  0.18376040  0.30326399  0.97228306     0.11300
C829        C  0.91982908  0.48693751  0.91950337    -0.03300
C830        C  0.89411525  0.48528481  0.92762549    -0.05900
C831        C  0.87424654  0.48554892  0.90980044    -0.21000
C832        C  0.87958643  0.48715408  0.88349604     0.24700
C833        C  0.90523669  0.48921126  0.87526936    -0.18600
C834        C  0.92517150  0.48900061  0.89312305    -0.08500
C835        C  0.85784922  0.48748954  0.86535210    -0.18800
C836        C  0.85983217  0.47957596  0.84087287    -0.23600
C837        C  0.83808106  0.48053110  0.82269871     0.26800
C838        C  0.83818152  0.46417405  0.80133807    -0.20400
C839        C  0.81859718  0.46550933  0.78313683    -0.10000
C840        C  0.79870623  0.48352185  0.78581381    -0.10600
C841        C  0.79859973  0.49979062  0.80731101    -0.03500
C842        C  0.81802573  0.49833157  0.82554414    -0.18600
H843        H  0.88924741  0.48376742  0.94779380     0.10500
H844        H  0.85461605  0.48424711  0.91658105     0.10500
H845        H  0.90998366  0.49141789  0.85515759     0.10200
H846        H  0.94473097  0.49062381  0.88624727     0.11300
H847        H  0.83930617  0.49325484  0.87292671     0.11400
H848        H  0.87771228  0.47132422  0.83403926     0.13300
H849        H  0.85348676  0.45036454  0.79870866     0.09800
H850        H  0.81904762  0.45246326  0.76697866     0.11900
H851        H  0.78393104  0.51430067  0.80966339     0.08500
H852        H  0.81769138  0.51187071  0.84125886     0.11300
C853        C  0.09074196  0.48858960  0.91381465    -0.03300
C854        C  0.08412911  0.47765885  0.89014552    -0.05900
C855        C  0.10031633  0.48025670  0.86910375    -0.21000
C856        C  0.12313439  0.49419597  0.87120812     0.24700
C857        C  0.13023421  0.50456672  0.89508029    -0.18600
C858        C  0.11413108  0.50163301  0.91634928    -0.08500
C859        C  0.13903564  0.49700669  0.84803563    -0.18800
C860        C  0.15393413  0.51748195  0.84339885    -0.23600
C861        C  0.16900803  0.51951165  0.81947465     0.26800
C862        C  0.19295885  0.53162820  0.81999247    -0.20400
C863        C  0.20904332  0.53062453  0.79855490    -0.10000
C864        C  0.20135722  0.51739732  0.77633943    -0.10600
C865        C  0.17647384  0.50715506  0.77521266    -0.03500
C866        C  0.16034747  0.50845326  0.79646899    -0.18600
H867        H  0.06628306  0.46727011  0.88784206     0.10500
H868        H  0.09469385  0.47187777  0.85093406     0.10500
H869        H  0.14814941  0.51477303  0.89738947     0.10200
H870        H  0.11955783  0.51017625  0.93449490     0.11300
H871        H  0.13754045  0.48187164  0.83381347     0.11400
H872        H  0.15592507  0.53250052  0.85767783     0.13300
H873        H  0.19973732  0.54073904  0.83738647     0.09800
H874        H  0.22789339  0.53925574  0.79973270     0.11900
H875        H  0.16990940  0.49677665  0.75847655     0.08500
H876        H  0.14143246  0.50002759  0.79505527     0.11300
C877        C  0.20687574  0.44836870  0.20685317    -0.03300
C878        C  0.18045201  0.44937334  0.21265668    -0.05900
C879        C  0.16259379  0.43763937  0.19671796    -0.21000
C880        C  0.17060026  0.42552810  0.17416715     0.24700
C881        C  0.19691298  0.42219667  0.16946391    -0.18600
C882        C  0.21494407  0.43316625  0.18596301    -0.08500
C883        C  0.15130608  0.42181742  0.15392252    -0.18800
C884        C  0.15489001  0.43313805  0.13101257    -0.23600
C885        C  0.13376283  0.44204445  0.11421175     0.26800
C886        C  0.14016177  0.45141235  0.08980504    -0.20400
C887        C  0.12161459  0.46281813  0.07432121    -0.10000
C888        C  0.09610949  0.46520179  0.08290704    -0.10600
C889        C  0.08965976  0.45591891  0.10740882    -0.03500
C890        C  0.10825732  0.44452896  0.12293790    -0.18600
H891        H  0.17309431  0.46100560  0.22818879     0.10500
H892        H  0.14234203  0.44044868  0.20057565     0.10500
H893        H  0.20343927  0.41248089  0.15226835     0.10200
H894        H  0.23509294  0.43094923  0.18143333     0.11300
H895        H  0.13237393  0.41556406  0.15986429     0.11400
H896        H  0.17410077  0.43948674  0.12585213     0.13300
H897        H  0.15970601  0.45015800  0.08276603     0.09800
H898        H  0.12728851  0.46953509  0.05547177     0.11900
H899        H  0.07016211  0.45719322  0.11453952     0.08500
H900        H  0.10250806  0.43840649  0.14190492     0.11300
C901        C  0.92594790  0.47140279  0.08931765    -0.03300
C902        C  0.93385842  0.46318898  0.11374183    -0.05900
C903        C  0.91579137  0.45599065  0.13211002    -0.21000
C904        C  0.88957610  0.45671665  0.12638094     0.24700
C905        C  0.88163928  0.46475428  0.10188269    -0.18600
C906        C  0.89967434  0.47192696  0.08352017    -0.08500
C907        C  0.87104444  0.45253612  0.14734557    -0.18800
C908        C  0.84603907  0.44802316  0.14330707    -0.23600
C909        C  0.82665814  0.45326096  0.16325269     0.26800
C910        C  0.80259906  0.44133486  0.16196800    -0.20400
C911        C  0.78296066  0.44859659  0.17877974    -0.10000
C912        C  0.78711372  0.46817499  0.19680090    -0.10600
C913        C  0.81130773  0.47992696  0.19807256    -0.03500
C914        C  0.83084256  0.47255809  0.18156762    -0.18600
H915        H  0.95400073  0.46224017  0.11869523     0.10500
H916        H  0.92228068  0.45021742  0.15098927     0.10500
H917        H  0.86156208  0.46651869  0.09702861     0.10200
H918        H  0.89296844  0.47812890  0.06486405     0.11300
H919        H  0.87792200  0.45543993  0.16680293     0.11400
H920        H  0.83926125  0.44238605  0.12444944     0.13300
H921        H  0.79888926  0.42675995  0.14764446     0.09800
H922        H  0.76447904  0.43923240  0.17743175     0.11900
H923        H  0.81487825  0.49572323  0.21106885     0.08500
H924        H  0.84870363  0.48309612  0.18232566     0.11300
C925        C  0.49910098  0.28302121  0.76737209    -0.03300
C926        C  0.52292095  0.28997451  0.77778817    -0.05900
C927        C  0.52486963  0.31028704  0.79523619    -0.21000
C928        C  0.50307485  0.32425018  0.80274110     0.24700
C929        C  0.47938053  0.31832095  0.79112121    -0.18600
C930        C  0.47741842  0.29776754  0.77372010    -0.08500
C931        C  0.50544912  0.34267453  0.82462197    -0.18800
C932        C  0.48943199  0.36250962  0.82879350    -0.23600
C933        C  0.49227503  0.38034192  0.85099275     0.26800
C934        C  0.48765420  0.40648882  0.84721925    -0.20400
C935        C  0.48924158  0.42375108  0.86766073    -0.10000
C936        C  0.49483480  0.41530859  0.89276325    -0.10600
C937        C  0.49931393  0.38899595  0.89665786    -0.03500
C938        C  0.49825678  0.37170028  0.87592108    -0.18600
H939        H  0.53977174  0.27848459  0.77376884     0.10500
H940        H  0.54333024  0.31433255  0.80383693     0.10500
H941        H  0.46204968  0.32829527  0.79672253     0.10200
H942        H  0.45869262  0.29225791  0.76665092     0.11300
H943        H  0.52153924  0.34009050  0.83759544     0.11400
H944        H  0.47474934  0.36689682  0.81471912     0.13300
H945        H  0.48289447  0.41363548  0.82829259     0.09800
H946        H  0.48553766  0.44379506  0.86375960     0.11900
H947        H  0.50358791  0.38179328  0.91566577     0.08500
H948        H  0.50145871  0.35151439  0.87948581     0.11300
C949        C  0.49433471  0.58390944  0.88973564    -0.03300
C950        C  0.48580867  0.60927097  0.89306951    -0.05900
C951        C  0.48391039  0.62600968  0.87198000    -0.21000
C952        C  0.49094412  0.61809041  0.84706699     0.24700
C953        C  0.50012198  0.59293773  0.84385206    -0.18600
C954        C  0.50170118  0.57611324  0.86484023    -0.08500
C955        C  0.48713946  0.63604754  0.82484975    -0.18800
C956        C  0.50051821  0.63504262  0.80250467    -0.23600
C957        C  0.49732441  0.65444481  0.78152355     0.26800
C958        C  0.51904205  0.66383319  0.76845956    -0.20400
C959        C  0.51704293  0.68482941  0.75162546    -0.10000
C960        C  0.49314801  0.69640074  0.74691448    -0.10600
C961        C  0.47111416  0.68505989  0.75774519    -0.03500
C962        C  0.47316169  0.66447969  0.77500358    -0.18600
H963        H  0.47985411  0.61597090  0.91184226     0.10500
H964        H  0.47669497  0.64522464  0.87512264     0.10500
H965        H  0.50530870  0.58586610  0.82501707     0.10200
H966        H  0.50840496  0.55676195  0.86144060     0.11300
H967        H  0.47357195  0.65163029  0.82757214     0.11400
H968        H  0.51592769  0.62120275  0.80044575     0.13300
H969        H  0.53787164  0.65624779  0.77283834     0.09800
H970        H  0.53442913  0.69355992  0.74427869     0.11900
H971        H  0.45252181  0.69390044  0.75497152     0.08500
H972        H  0.45595347  0.65720942  0.78413535     0.11300
C973        C  0.46877274  0.70909089  0.20061433    -0.03300
C974        C  0.49287904  0.71010647  0.18849709    -0.05900
C975        C  0.49914321  0.69273774  0.16879852    -0.21000
C976        C  0.48154609  0.67387762  0.16087821     0.24700
C977        C  0.45786754  0.67223120  0.17393390    -0.18600
C978        C  0.45169134  0.68949213  0.19355729    -0.08500
C979        C  0.48748325  0.65772169  0.13777479    -0.18800
C980        C  0.47547703  0.63531677  0.13284502    -0.23600
C981        C  0.47900418  0.61907296  0.10941322     0.26800
C982        C  0.46770050  0.59467489  0.10958746    -0.20400
C983        C  0.46954791  0.57850609  0.08836371    -0.10000
C984        C  0.48263692  0.58621283  0.06603129    -0.10600
C985        C  0.49361792  0.61082933  0.06537988    -0.03500
C986        C  0.49193916  0.62711857  0.08693168    -0.18600
H987        H  0.50612819  0.72544420  0.19297817     0.10500
H988        H  0.51742432  0.69466852  0.15904735     0.10500
H989        H  0.44327958  0.65871108  0.16816702     0.10200
H990        H  0.43273158  0.68864850  0.20209808     0.11300
H991        H  0.50217251  0.66458747  0.12469139     0.11400
H992        H  0.46231839  0.62783841  0.14715719     0.13300
H993        H  0.45736509  0.58794428  0.12636100     0.09800
H994        H  0.46061836  0.55978402  0.08947466     0.11900
H995        H  0.50391545  0.61724096  0.04847396     0.08500
H996        H  0.50057322  0.64591156  0.08574202     0.11300
C997        C  0.49129682  0.28822406  0.19834213    -0.03300
C998        C  0.46764076  0.28987792  0.18561293    -0.05900
C999        C  0.46362642  0.30855214  0.16657969    -0.21000
C1000       C  0.48298534  0.32624617  0.16016207     0.24700
C1001       C  0.50607043  0.32557837  0.17412032    -0.18600
C1002       C  0.51019699  0.30669932  0.19283817    -0.08500
C1003       C  0.47970501  0.34327259  0.13724632    -0.18800
C1004       C  0.49097529  0.36647370  0.13506893    -0.23600
C1005       C  0.48912411  0.38339989  0.11192986     0.26800
C1006       C  0.49253912  0.40984681  0.11519236    -0.20400
C1007       C  0.49209410  0.42652190  0.09418318    -0.10000
C1008       C  0.48860856  0.41731100  0.06899349    -0.10600
C1009       C  0.48554045  0.39069221  0.06555101    -0.03500
C1010       C  0.48568218  0.37392018  0.08679686    -0.18600
H1011       H  0.45301483  0.27551088  0.18896199     0.10500
H1012       H  0.44570703  0.30852675  0.15610260     0.10500
H1013       H  0.52165857  0.33846684  0.16942605     0.10200
H1014       H  0.52885686  0.30543441  0.20185734     0.11300
H1015       H  0.46728544  0.33657164  0.12195314     0.11400
H1016       H  0.50137081  0.37400172  0.15146632     0.13300
H1017       H  0.49555905  0.41772588  0.13419045     0.09800
H1018       H  0.49483785  0.44677436  0.09777838     0.11900
H1019       H  0.48303845  0.38282990  0.04648467     0.08500
H1020       H  0.48370522  0.35355569  0.08342915     0.11300
C1021       C  0.72889707  0.19554167  0.99505646    -0.03300
C1022       C  0.71444418  0.18630566  0.97424043    -0.05900
C1023       C  0.69932094  0.16424983  0.97672814    -0.21000
C1024       C  0.69828259  0.15086370  0.00013881     0.24700
C1025       C  0.71455517  0.15872376  0.02016852    -0.18600
C1026       C  0.72953571  0.18103336  0.01775493    -0.08500
C1027       C  0.67964367  0.12943626  0.00428538    -0.18800
C1028       C  0.65548590  0.13021861  0.99482564    -0.23600
C1029       C  0.63548522  0.10994829  0.99869983     0.26800
C1030       C  0.60950219  0.11652452  0.99557405    -0.20400
C1031       C  0.59010550  0.09794181  0.99728994    -0.10000
C1032       C  0.59615032  0.07205777  0.00178894    -0.10600
C1033       C  0.62219116  0.06549632  0.00521793    -0.03500
C1034       C  0.64159021  0.08417391  0.00377648    -0.18600
H1035       H  0.71336433  0.19730691  0.95663555     0.10500
H1036       H  0.68766930  0.15824817  0.96063684     0.10500
H1037       H  0.71436502  0.14858428  0.03830987     0.10200
H1038       H  0.74000816  0.18802375  0.03426153     0.11300
H1039       H  0.68526893  0.11388700  0.01690625     0.11400
H1040       H  0.64958559  0.14724473  0.98437899     0.13300
H1041       H  0.60416056  0.13618035  0.99155847     0.09800
H1042       H  0.57037968  0.10381694  0.99453443     0.11900
H1043       H  0.62766973  0.04580426  0.00879990     0.08500
H1044       H  0.66134637  0.07819242  0.00586142     0.11300
C1045       C  0.42293777  0.89949791  0.01025222    -0.03300
C1046       C  0.42861254  0.87347384  0.01447227    -0.05900
C1047       C  0.40891615  0.85511763  0.01625423    -0.21000
C1048       C  0.38289379  0.86200468  0.01362816     0.24700
C1049       C  0.37718223  0.88810778  0.00961761    -0.18600
C1050       C  0.39688280  0.90648911  0.00795111    -0.08500
C1051       C  0.36277263  0.84124721  0.01516773    -0.18800
C1052       C  0.33761831  0.84391838  0.00885339    -0.23600
C1053       C  0.31847552  0.82221860  0.00808711     0.26800
C1054       C  0.29554544  0.82538230  0.99411845    -0.20400
C1055       C  0.27855185  0.80477054  0.99029023    -0.10000
C1056       C  0.28385187  0.78049602  0.00063098    -0.10600
C1057       C  0.30577874  0.77772671  0.01606653    -0.03500
C1058       C  0.32275203  0.79829440  0.01994802    -0.18600
H1059       H  0.44831299  0.86725021  0.01659009     0.10500
H1060       H  0.41412037  0.83529245  0.01954216     0.10500
H1061       H  0.35759484  0.89463586  0.00791568     0.10200
H1062       H  0.39161103  0.92630602  0.00477557     0.11300
H1063       H  0.36966873  0.82240975  0.02052271     0.11400
H1064       H  0.33087819  0.86237056  0.00213023     0.13300
H1065       H  0.29141454  0.84353210  0.98492589     0.09800
H1066       H  0.26222201  0.80732825  0.97773327     0.11900
H1067       H  0.31062285  0.75909776  0.02384329     0.08500
H1068       H  0.33953325  0.79497401  0.03160819     0.11300
C1069       C  0.73507943  0.78204208  0.00183732    -0.03300
C1070       C  0.73967766  0.80347683  0.98621198    -0.05900
C1071       C  0.72320652  0.82475167  0.98716416    -0.21000
C1072       C  0.70148018  0.82469492  0.00324429     0.24700
C1073       C  0.69796856  0.80395984  0.02016487    -0.18600
C1074       C  0.71461731  0.78289529  0.01944955    -0.08500
C1075       C  0.68252458  0.84608806  0.00141548    -0.18800
C1076       C  0.65702182  0.84263696  0.00487638    -0.23600
C1077       C  0.63719149  0.86322862  0.00221891     0.26800
C1078       C  0.61131125  0.85609917  0.99954105    -0.20400
C1079       C  0.59181374  0.87459679  0.99866854    -0.10000
C1080       C  0.59762849  0.90084026  0.00058102    -0.10600
C1081       C  0.62362764  0.90803948  0.00257436    -0.03500
C1082       C  0.64313072  0.88952131  0.00349005    -0.18600
H1083       H  0.75483572  0.80296868  0.97195175     0.10500
H1084       H  0.72651502  0.84058723  0.97412402     0.10500
H1085       H  0.68190534  0.80359130  0.03337437     0.10200
H1086       H  0.71036852  0.76634636  0.03128141     0.11300
H1087       H  0.68966367  0.86454293  0.99503913     0.11400
H1088       H  0.65005901  0.82343316  0.00892682     0.13300
H1089       H  0.60608264  0.83604049  0.99840501     0.09800
H1090       H  0.57212090  0.86826672  0.99683686     0.11900
H1091       H  0.62894703  0.92804166  0.00407144     0.08500
H1092       H  0.66267207  0.89597023  0.00598610     0.11300
C1093       C  0.42168006  0.07107238  0.01103381    -0.03300
C1094       C  0.42612516  0.09554032  0.02145985    -0.05900
C1095       C  0.40588720  0.11314316  0.02456708    -0.21000
C1096       C  0.38066430  0.10707616  0.01695589     0.24700
C1097       C  0.37629749  0.08270268  0.00619285    -0.18600
C1098       C  0.39646734  0.06499532  0.00338346    -0.08500
C1099       C  0.35954794  0.12624440  0.02168100    -0.18800
C1100       C  0.33588764  0.12567554  0.01078732    -0.23600
C1101       C  0.31554633  0.14556004  0.01572724     0.26800
C1102       C  0.29693210  0.15083824  0.99683363    -0.20400
C1103       C  0.27952863  0.17133720  0.99976032    -0.10000
C1104       C  0.28011347  0.18674367  0.02187266    -0.10600
C1105       C  0.29687854  0.17964429  0.04186155    -0.03500
C1106       C  0.31444449  0.15952533  0.03879909    -0.18600
H1107       H  0.44515330  0.10087980  0.02781907     0.10500
H1108       H  0.40997422  0.13161474  0.03312052     0.10500
H1109       H  0.35725840  0.07686833  0.00047204     0.10200
H1110       H  0.39224218  0.04636408  0.99527708     0.11300
H1111       H  0.36422236  0.14218286  0.03421427     0.11400
H1112       H  0.33162081  0.11114953  0.99654556     0.13300
H1113       H  0.29684449  0.14004048  0.97907878     0.09800
H1114       H  0.26706194  0.17634782  0.98394033     0.11900
H1115       H  0.29769929  0.19100987  0.05924885     0.08500
H1116       H  0.32755801  0.15542943  0.05432848     0.11300
C1117       C  0.49650331  0.18951771  0.78346376    -0.03300
C1118       C  0.47904451  0.16913712  0.78126429    -0.05900
C1119       C  0.47928570  0.14916951  0.79905517    -0.21000
C1120       C  0.49685417  0.14935074  0.81936264     0.24700
C1121       C  0.51504725  0.16920318  0.82090440    -0.18600
C1122       C  0.51477604  0.18917679  0.80315064    -0.08500
C1123       C  0.49607499  0.12839850  0.83839659    -0.18800
C1124       C  0.50354916  0.13174477  0.86283585    -0.23600
C1125       C  0.50357679  0.11089793  0.88201350     0.26800
C1126       C  0.50240036  0.11730411  0.90811161    -0.20400
C1127       C  0.50316980  0.09821770  0.92682308    -0.10000
C1128       C  0.50528586  0.07229950  0.91974882    -0.10600
C1129       C  0.50675965  0.06592549  0.89357622    -0.03500
C1130       C  0.50599533  0.08502341  0.87488544    -0.18600
H1131       H  0.46485336  0.16895556  0.76611438     0.10500
H1132       H  0.46537398  0.13384894  0.79729192     0.10500
H1133       H  0.52962664  0.16927417  0.83564988     0.10200
H1134       H  0.52892480  0.20429900  0.80469256     0.11300
H1135       H  0.48793198  0.11022227  0.83239270     0.11400
H1136       H  0.50904768  0.15071573  0.86939825     0.13300
H1137       H  0.50080722  0.13714535  0.91403789     0.09800
H1138       H  0.50208812  0.10381465  0.94681740     0.11900
H1139       H  0.50876155  0.04618409  0.88747862     0.08500
H1140       H  0.50789718  0.07943905  0.85497330     0.11300
C1141       C  0.50331853  0.90245718  0.91757264    -0.03300
C1142       C  0.49774688  0.91177006  0.89285550    -0.05900
C1143       C  0.49538346  0.89513606  0.87224484    -0.21000
C1144       C  0.49834397  0.86875483  0.87571132     0.24700
C1145       C  0.50370854  0.85915682  0.90040054    -0.18600
C1146       C  0.50611790  0.87594000  0.92123251    -0.08500
C1147       C  0.49725316  0.85239332  0.85264538    -0.18800
C1148       C  0.49202571  0.82722344  0.85306380    -0.23600
C1149       C  0.49164165  0.81185207  0.82920377     0.26800
C1150       C  0.47581644  0.79020306  0.82782117    -0.20400
C1151       C  0.47476483  0.77574505  0.80529090    -0.10000
C1152       C  0.48970228  0.78263741  0.78383368    -0.10600
C1153       C  0.50594164  0.80395853  0.78542900    -0.03500
C1154       C  0.50706685  0.81832427  0.80793254    -0.18600
H1155       H  0.49522164  0.93205200  0.88924725     0.10500
H1156       H  0.49132375  0.90297713  0.85342114     0.10500
H1157       H  0.50672858  0.83890124  0.90358457     0.10200
H1158       H  0.51049471  0.86823082  0.94001954     0.11300
H1159       H  0.49991881  0.86192403  0.83429303     0.11400
H1160       H  0.48666867  0.81793337  0.87093862     0.13300
H1161       H  0.46402213  0.78468151  0.84406567     0.09800
H1162       H  0.46217094  0.75925338  0.80456939     0.11900
H1163       H  0.51825670  0.80913642  0.76946725     0.08500
H1164       H  0.52039883  0.83419105  0.80870806     0.11300
C1165       C  0.41839062  0.78735498  0.19359372    -0.03300
C1166       C  0.41074639  0.81215975  0.20137920    -0.05900
C1167       C  0.41191629  0.83261048  0.18404677    -0.21000
C1168       C  0.41962802  0.82816171  0.15869764     0.24700
C1169       C  0.42073093  0.80292192  0.14965303    -0.18600
C1170       C  0.42043794  0.78266803  0.16694563    -0.08500
C1171       C  0.43169337  0.84905222  0.14386324    -0.18800
C1172       C  0.45386796  0.84460432  0.13127314    -0.23600
C1173       C  0.46879309  0.86442012  0.11779878     0.26800
C1174       C  0.48319466  0.85706140  0.09631036    -0.20400
C1175       C  0.49641040  0.87529621  0.08197828    -0.10000
C1176       C  0.49577097  0.90124636  0.08910523    -0.10600
C1177       C  0.48293195  0.90833528  0.11182851    -0.03500
C1178       C  0.46946009  0.89002272  0.12607570    -0.18600
H1179       H  0.40660211  0.81645974  0.22126097     0.10500
H1180       H  0.40968671  0.85200740  0.19112051     0.10500
H1181       H  0.42505471  0.79899001  0.12967640     0.10200
H1182       H  0.42514172  0.76408514  0.15919298     0.11300
H1183       H  0.42405075  0.86833547  0.14551037     0.11400
H1184       H  0.46153437  0.82524988  0.13041480     0.13300
H1185       H  0.48333646  0.83728560  0.08995850     0.09800
H1186       H  0.50620675  0.86920693  0.06465507     0.11900
H1187       H  0.48207107  0.92819644  0.11781012     0.08500
H1188       H  0.45933129  0.89596978  0.14324075     0.11300
C1189       C  0.53884337  0.20620640  0.19292406    -0.03300
C1190       C  0.55489002  0.18810293  0.20485835    -0.05900
C1191       C  0.56275894  0.16619464  0.19161204    -0.21000
C1192       C  0.55534539  0.16250301  0.16608945     0.24700
C1193       C  0.54164172  0.18200117  0.15339288    -0.18600
C1194       C  0.53349696  0.20362287  0.16668718    -0.08500
C1195       C  0.55731633  0.13672867  0.15455216    -0.18800
C1196       C  0.55785388  0.13392824  0.12904261    -0.23600
C1197       C  0.54625310  0.11180520  0.11603901     0.26800
C1198       C  0.53273483  0.11679302  0.09345987    -0.20400
C1199       C  0.52159959  0.09697231  0.07979162    -0.10000
C1200       C  0.52425070  0.07152232  0.08810069    -0.10600
C1201       C  0.53666565  0.06649627  0.11151217    -0.03500
C1202       C  0.54755053  0.08661461  0.12553613    -0.18600
H1203       H  0.55972777  0.18993941  0.22497763     0.10500
H1204       H  0.57328249  0.15143315  0.20172625     0.10500
H1205       H  0.53490103  0.17957657  0.13391230     0.10200
H1206       H  0.52090130  0.21696517  0.15699164     0.11300
H1207       H  0.55360565  0.12038034  0.16692199     0.11400
H1208       H  0.56206290  0.15054561  0.11717156     0.13300
H1209       H  0.53094323  0.13617790  0.08620975     0.09800
H1210       H  0.51186237  0.10157782  0.06203429     0.11900
H1211       H  0.53908756  0.04702674  0.11829271     0.08500
H1212       H  0.55777268  0.08234699  0.14308004     0.11300
C1213       C  0.28460631  0.98827733  0.21007713    -0.03300
C1214       C  0.27992057  0.99879350  0.18576252    -0.05900
C1215       C  0.29766632  0.99553214  0.16571819    -0.21000
C1216       C  0.32083768  0.98228809  0.16969643     0.24700
C1217       C  0.32469518  0.97025576  0.19358402    -0.18600
C1218       C  0.30674398  0.97324897  0.21353312    -0.08500
C1219       C  0.34060350  0.98217499  0.14873482    -0.18800
C1220       C  0.36623833  0.98077849  0.15288799    -0.23600
C1221       C  0.38634816  0.98273270  0.13220685     0.26800
C1222       C  0.41199520  0.98780040  0.13907804    -0.20400
C1223       C  0.43157379  0.98900788  0.12043792    -0.10000
C1224       C  0.42604600  0.98513447  0.09431405    -0.10600
C1225       C  0.40030617  0.98032645  0.08745461    -0.03500
C1226       C  0.38082677  0.97902975  0.10603220    -0.18600
H1227       H  0.26347777  0.01113483  0.18283421     0.10500
H1228       H  0.29401551  0.00480265  0.14748657     0.10500
H1229       H  0.34190882  0.95925814  0.19720017     0.10200
H1230       H  0.31113930  0.96552455  0.23232133     0.11300
H1231       H  0.33366629  0.98568268  0.12945814     0.11400
H1232       H  0.37301830  0.97942654  0.17252821     0.13300
H1233       H  0.41695429  0.99078749  0.15903386     0.09800
H1234       H  0.45103366  0.99289999  0.12651717     0.11900
H1235       H  0.39512396  0.97709661  0.06759871     0.08500
H1236       H  0.36163069  0.97453417  0.09967965     0.11300
C1237       C  0.59253025  0.98165773  0.91450000    -0.03300
C1238       C  0.58543660  0.97650055  0.88898930    -0.05900
C1239       C  0.60407513  0.97426024  0.86960296    -0.21000
C1240       C  0.63034239  0.97739279  0.87497244     0.24700
C1241       C  0.63753393  0.98254681  0.90048080    -0.18600
C1242       C  0.61889617  0.98455582  0.91995160    -0.08500
C1243       C  0.64942000  0.97382320  0.85364120    -0.18800
C1244       C  0.67370949  0.98312499  0.85343102    -0.23600
C1245       C  0.69162796  0.97965956  0.83107262     0.26800
C1246       C  0.71033639  0.99840228  0.82563340    -0.20400
C1247       C  0.72557489  0.99682584  0.80331245    -0.10000
C1248       C  0.72263462  0.97627975  0.78615381    -0.10600
C1249       C  0.70526967  0.95663493  0.79257851    -0.03500
C1250       C  0.69008324  0.95819999  0.81477617    -0.18600
H1251       H  0.56545459  0.97389965  0.88399167     0.10500
H1252       H  0.59789150  0.97004284  0.85022044     0.10500
H1253       H  0.65753022  0.98447710  0.90562687     0.10200
H1254       H  0.62522568  0.98834031  0.93936704     0.11300
H1255       H  0.64251701  0.96396289  0.83665894     0.11400
H1256       H  0.68014007  0.99508254  0.86919556     0.13300
H1257       H  0.71223948  0.01499369  0.83797386     0.09800
H1258       H  0.73840237  0.01247111  0.79860142     0.11900
H1259       H  0.70246573  0.94066935  0.77958981     0.08500
H1260       H  0.67669611  0.94284939  0.81875511     0.11300
C1261       C  0.41774248  0.98135757  0.92443194    -0.03300
C1262       C  0.39634767  0.96656948  0.93168453    -0.05900
C1263       C  0.37504091  0.96420483  0.91552614    -0.21000
C1264       C  0.37408100  0.97697246  0.89180853     0.24700
C1265       C  0.39540268  0.99204017  0.88450873    -0.18600
C1266       C  0.41710708  0.99397450  0.90054940    -0.08500
C1267       C  0.35133932  0.97240687  0.87474183    -0.18800
C1268       C  0.34310911  0.98874283  0.85633284    -0.23600
C1269       C  0.32127395  0.98334211  0.83821730     0.26800
C1270       C  0.31094107  0.00367116  0.82376429    -0.20400
C1271       C  0.29327806  0.99912962  0.80392403    -0.10000
C1272       C  0.28563419  0.97407333  0.79781072    -0.10600
C1273       C  0.29474504  0.95382742  0.81312203    -0.03500
C1274       C  0.31218704  0.95836133  0.83317386    -0.18600
H1275       H  0.39622999  0.95643865  0.94984245     0.10500
H1276       H  0.35914590  0.95228036  0.92164462     0.10500
H1277       H  0.39567257  0.00179359  0.86618257     0.10200
H1278       H  0.43323147  0.00558225  0.89444754     0.11300
H1279       H  0.34052789  0.95499704  0.87825016     0.11400
H1280       H  0.35274834  0.00708183  0.85434255     0.13300
H1281       H  0.31745371  0.02310194  0.82705435     0.09800
H1282       H  0.28706733  0.01502536  0.79210263     0.11900
H1283       H  0.28956199  0.93426172  0.80851430     0.08500
H1284       H  0.31966326  0.94199395  0.84342841     0.11300
C1285       C  0.48678797  0.08964808  0.39792798    -0.03300
C1286       C  0.48927187  0.11492051  0.40729148    -0.05900
C1287       C  0.48773596  0.13610658  0.39086694    -0.21000
C1288       C  0.48339540  0.13301271  0.36447351     0.24700
C1289       C  0.48088204  0.10782295  0.35487613    -0.18600
C1290       C  0.48261684  0.08641922  0.37140542    -0.08500
C1291       C  0.48355788  0.15649458  0.34775013    -0.18800
C1292       C  0.47269690  0.15819703  0.32422437    -0.23600
C1293       C  0.47503795  0.18114960  0.30681329     0.26800
C1294       C  0.45883977  0.18308725  0.28529221    -0.20400
C1295       C  0.46309513  0.20176105  0.26627416    -0.10000
C1296       C  0.48362545  0.21908427  0.26830952    -0.10600
C1297       C  0.49888587  0.21819699  0.29048667    -0.03500
C1298       C  0.49465413  0.19958838  0.30952886    -0.18600
H1299       H  0.49259366  0.11849261  0.42749132     0.10500
H1300       H  0.49001157  0.15512149  0.39890754     0.10500
H1301       H  0.47815999  0.10451999  0.33456732     0.10200
H1302       H  0.48064853  0.06737050  0.36342016     0.11300
H1303       H  0.49270693  0.17335814  0.35573352     0.11400
H1304       H  0.46171430  0.14200690  0.31715636     0.13300
H1305       H  0.44366676  0.16919946  0.28245293     0.09800
H1306       H  0.45165887  0.20130812  0.24894745     0.11900
H1307       H  0.51550433  0.23056259  0.29203679     0.08500
H1308       H  0.50804091  0.19870393  0.32530158     0.11300
C1309       C  0.47345273  0.77859886  0.26996336    -0.03300
C1310       C  0.49586859  0.79330717  0.26741735    -0.05900
C1311       C  0.50195232  0.81220775  0.28570183    -0.21000
C1312       C  0.48576994  0.81693195  0.30693388     0.24700
C1313       C  0.46412581  0.80098345  0.31014055    -0.18600
C1314       C  0.45810071  0.78217283  0.29188341    -0.08500
C1315       C  0.49080858  0.83992359  0.32374441    -0.18800
C1316       C  0.47902355  0.84436596  0.34652958    -0.23600
C1317       C  0.48298310  0.86767834  0.36297230     0.26800
C1318       C  0.47862888  0.86542629  0.38945732    -0.20400
C1319       C  0.48102495  0.88657377  0.40579705    -0.10000
C1320       C  0.48737238  0.91108001  0.39626545    -0.10600
C1321       C  0.49129956  0.91359729  0.36957002    -0.03500
C1322       C  0.48929172  0.89210299  0.35311543    -0.18600
H1323       H  0.50762543  0.79151548  0.25032907     0.10500
H1324       H  0.51872773  0.82405534  0.28254594     0.10500
H1325       H  0.45074470  0.80386011  0.32573783     0.10200
H1326       H  0.44030867  0.77161720  0.29390418     0.11300
H1327       H  0.50484287  0.85375714  0.31697956     0.11400
H1328       H  0.46651470  0.82976703  0.35444953     0.13300
H1329       H  0.47339047  0.84706997  0.39766510     0.09800
H1330       H  0.47750181  0.88366096  0.42608809     0.11900
H1331       H  0.49603546  0.93209773  0.36143501     0.08500
H1332       H  0.49211243  0.89476272  0.33269786     0.11300
C1333       C  0.49478913  0.08689980  0.56660675    -0.03300
C1334       C  0.51027255  0.10827936  0.56118109    -0.05900
C1335       C  0.51188267  0.12877041  0.57841412    -0.21000
C1336       C  0.49755508  0.12887470  0.60126547     0.24700
C1337       C  0.48191992  0.10749774  0.60681771    -0.18600
C1338       C  0.48079794  0.08656191  0.58975457    -0.08500
C1339       C  0.50082419  0.15094394  0.61927213    -0.18800
C1340       C  0.48247628  0.15957564  0.63546011    -0.23600
C1341       C  0.48637987  0.18155364  0.65358774     0.26800
C1342       C  0.46490138  0.19479381  0.66324107    -0.20400
C1343       C  0.46749883  0.21284324  0.68307432    -0.10000
C1344       C  0.49163634  0.21793888  0.69382681    -0.10600
C1345       C  0.51332871  0.20610101  0.68296553    -0.03500
C1346       C  0.51078126  0.18807870  0.66316863    -0.18600
H1347       H  0.52143358  0.10902385  0.54361569     0.10500
H1348       H  0.52428173  0.14477828  0.57374499     0.10500
H1349       H  0.47101909  0.10667751  0.62451482     0.10200
H1350       H  0.46867337  0.07034833  0.59440323     0.11300
H1351       H  0.51880834  0.16134759  0.61798996     0.11400
H1352       H  0.46366111  0.15063902  0.63506818     0.13300
H1353       H  0.44586773  0.19017471  0.65635353     0.09800
H1354       H  0.45038571  0.22096752  0.69166888     0.11900
H1355       H  0.53201154  0.20885291  0.69160824     0.08500
H1356       H  0.52778634  0.17797765  0.65686909     0.11300
C1357       C  0.48947711  0.77627656  0.68828028    -0.03300
C1358       C  0.50990075  0.77442325  0.67070726    -0.05900
C1359       C  0.51164924  0.79137704  0.64970616    -0.21000
C1360       C  0.49318616  0.81072948  0.64586972     0.24700
C1361       C  0.47194840  0.81152672  0.66262226    -0.18600
C1362       C  0.47022608  0.79464348  0.68354877    -0.08500
C1363       C  0.49679923  0.82982418  0.62453122    -0.18800
C1364       C  0.48732389  0.85400896  0.62526912    -0.23600
C1365       C  0.49174217  0.87411319  0.60510328     0.26800
C1366       C  0.48842788  0.90003327  0.61178609    -0.20400
C1367       C  0.49059623  0.91951972  0.59335122    -0.10000
C1368       C  0.49570633  0.91363127  0.56747300    -0.10600
C1369       C  0.49973558  0.88774566  0.56085344    -0.03500
C1370       C  0.49782211  0.86823988  0.57939400    -0.18600
H1371       H  0.52520086  0.76078062  0.67396837     0.10500
H1372       H  0.52808127  0.79003887  0.63700127     0.10500
H1373       H  0.45676824  0.82539187  0.65988136     0.10200
H1374       H  0.45417478  0.79650164  0.69667515     0.11300
H1375       H  0.50924098  0.82431563  0.60873229     0.11400
H1376       H  0.47676263  0.86003088  0.64221438     0.13300
H1377       H  0.48379889  0.90525015  0.63139033     0.09800
H1378       H  0.48745520  0.93916393  0.59928926     0.11900
H1379       H  0.50390054  0.88245508  0.54117466     0.08500
H1380       H  0.50024282  0.84858135  0.57328635     0.11300
C1381       C  0.40417364  0.01997526  0.40188741    -0.03300
C1382       C  0.37825731  0.02046702  0.40939646    -0.05900
C1383       C  0.36030898  0.03427584  0.39518071    -0.21000
C1384       C  0.36777669  0.04795842  0.37319277     0.24700
C1385       C  0.39376850  0.04749772  0.36571148    -0.18600
C1386       C  0.41167934  0.03361132  0.37986527    -0.08500
C1387       C  0.34733137  0.05940564  0.35706791    -0.18800
C1388       C  0.35165578  0.07215158  0.33501984    -0.23600
C1389       C  0.33261296  0.07027388  0.31429555     0.26800
C1390       C  0.34064879  0.05929860  0.29117860    -0.20400
C1391       C  0.32279392  0.04832867  0.27470129    -0.10000
C1392       C  0.29634916  0.04903730  0.28055335    -0.10600
C1393       C  0.28829958  0.06360449  0.30191684    -0.03500
C1394       C  0.30632062  0.07372682  0.31894099    -0.18600
H1395       H  0.37186643  0.01048511  0.42648679     0.10500
H1396       H  0.34040950  0.03402355  0.40125570     0.10500
H1397       H  0.40059232  0.05733283  0.34880128     0.10200
H1398       H  0.43158836  0.03415329  0.37386694     0.11300
H1399       H  0.32781241  0.05342368  0.36143357     0.11400
H1400       H  0.37083624  0.07803294  0.32959663     0.13300
H1401       H  0.36089727  0.05648364  0.28729963     0.09800
H1402       H  0.33024461  0.03726409  0.25881170     0.11900
H1403       H  0.26816966  0.06575284  0.30653509     0.08500
H1404       H  0.29977776  0.08264678  0.33655871     0.11300
C1405       C  0.57989235  0.00885297  0.56368771    -0.03300
C1406       C  0.60546797  0.01233587  0.55567634    -0.05900
C1407       C  0.62514107  0.01445643  0.57366622    -0.21000
C1408       C  0.61971626  0.01287374  0.59996166     0.24700
C1409       C  0.59403822  0.01069824  0.60807081    -0.18600
C1410       C  0.57434400  0.00861324  0.59010598    -0.08500
C1411       C  0.64128039  0.01244538  0.61837724    -0.18800
C1412       C  0.64005698  0.99865353  0.64015117    -0.23600
C1413       C  0.66168600  0.99499475  0.65818733     0.26800
C1414       C  0.65928632  0.97571556  0.67681290    -0.20400
C1415       C  0.67865397  0.97156050  0.69468982    -0.10000
C1416       C  0.70089137  0.98664941  0.69434790    -0.10600
C1417       C  0.70359321  0.00577947  0.67556198    -0.03500
C1418       C  0.68410983  0.01005741  0.65769060    -0.18600
H1419       H  0.61039809  0.01306919  0.53547999     0.10500
H1420       H  0.64474884  0.01646438  0.56700318     0.10500
H1421       H  0.58910423  0.01043518  0.62826638     0.10200
H1422       H  0.55482591  0.00647532  0.59695896     0.11300
H1423       H  0.65908399  0.02147982  0.61252460     0.11400
H1424       H  0.62263995  0.98800140  0.64432556     0.13300
H1425       H  0.64228266  0.96379612  0.67759259     0.09800
H1426       H  0.67626068  0.95651040  0.70881530     0.11900
H1427       H  0.72047336  0.01788390  0.67515884     0.08500
H1428       H  0.68660199  0.02545302  0.64404301     0.11300
C1429       C  0.40995920  0.98842850  0.57027144    -0.03300
C1430       C  0.41562122  0.99762406  0.59491795    -0.05900
C1431       C  0.39966196  0.99185747  0.61556616    -0.21000
C1432       C  0.37795485  0.97640116  0.61222122     0.24700
C1433       C  0.37215754  0.96702327  0.58759329    -0.18600
C1434       C  0.38799752  0.97319657  0.56669327    -0.08500
C1435       C  0.36151117  0.97187563  0.63491053    -0.18800
C1436       C  0.34683539  0.95099752  0.63869903    -0.23600
C1437       C  0.33201278  0.94789599  0.66287455     0.26800
C1438       C  0.30786092  0.93612882  0.66244845    -0.20400
C1439       C  0.29221283  0.93649630  0.68433283    -0.10000
C1440       C  0.30042886  0.94881251  0.70696817    -0.10600
C1441       C  0.32554074  0.95851494  0.70789726    -0.03500
C1442       C  0.34123963  0.95777532  0.68622283    -0.18600
H1443       H  0.43245295  0.00932586  0.59825683     0.10500
H1444       H  0.40444289  0.99934119  0.63436193     0.10500
H1445       H  0.35529069  0.95538701  0.58436256     0.10200
H1446       H  0.38342862  0.96560900  0.54789744     0.11300
H1447       H  0.36232594  0.98645491  0.64976145     0.11400
H1448       H  0.34505872  0.93652497  0.62383607     0.13300
H1449       H  0.30057639  0.92783971  0.64484987     0.09800
H1450       H  0.27322844  0.92816827  0.68315982     0.11900
H1451       H  0.33263525  0.96817542  0.72483469     0.08500
H1452       H  0.36031513  0.96584237  0.68758936     0.11300
C1453       C  0.74650250  0.98772914  0.19921518    -0.03300
C1454       C  0.73524829  0.96366206  0.19486840    -0.05900
C1455       C  0.71557654  0.96063340  0.17675216    -0.21000
C1456       C  0.70669473  0.98149526  0.16215761     0.24700
C1457       C  0.71943557  0.00521128  0.16498236    -0.18600
C1458       C  0.73890923  0.00830599  0.18346474    -0.08500
C1459       C  0.68254049  0.97829675  0.14661499    -0.18800
C1460       C  0.67508355  0.99413962  0.12748978    -0.23600
C1461       C  0.65063490  0.99112207  0.11256612     0.26800
C1462       C  0.65057397  0.99814353  0.08660285    -0.20400
C1463       C  0.62809231  0.99689627  0.07200902    -0.10000
C1464       C  0.60452989  0.98897472  0.08290908    -0.10600
C1465       C  0.60437714  0.98234395  0.10914197    -0.03500
C1466       C  0.62722223  0.98318672  0.12375905    -0.18600
H1467       H  0.73986165  0.94772291  0.20735852     0.10500
H1468       H  0.70624208  0.94215725  0.17520132     0.10500
H1469       H  0.71313173  0.02193602  0.15449556     0.10200
H1470       H  0.74642789  0.02732202  0.18703665     0.11300
H1471       H  0.67046237  0.96189738  0.15101717     0.11400
H1472       H  0.68800393  0.00926205  0.12135352     0.13300
H1473       H  0.66813252  0.00455394  0.07745111     0.09800
H1474       H  0.62925732  0.00241218  0.05199387     0.11900
H1475       H  0.58671554  0.97627960  0.11828355     0.08500
H1476       H  0.62643870  0.97818906  0.14391341     0.11300
C1477       C  0.72307964  0.00214913  0.28849714    -0.03300
C1478       C  0.72466129  0.01890868  0.30945277    -0.05900
C1479       C  0.70377798  0.02162327  0.32612248    -0.21000
C1480       C  0.68111634  0.00759230  0.32212807     0.24700
C1481       C  0.68001384  0.99013965  0.30161110    -0.18600
C1482       C  0.70076287  0.98752812  0.28497959    -0.08500
C1483       C  0.65972627  0.01044708  0.34065376    -0.18800
C1484       C  0.63551191  0.00272088  0.33597799    -0.23600
C1485       C  0.61517182  0.00302531  0.35588969     0.26800
C1486       C  0.58930551  0.00263058  0.34844760    -0.20400
C1487       C  0.56978591  0.00214812  0.36693944    -0.10000
C1488       C  0.57587230  0.00186173  0.39322291    -0.10600
C1489       C  0.60179951  0.00192228  0.40053971    -0.03500
C1490       C  0.62117686  0.00228832  0.38215824    -0.18600
H1491       H  0.74178524  0.03022477  0.31259831     0.10500
H1492       H  0.70525932  0.03482821  0.34209806     0.10500
H1493       H  0.66347742  0.97805332  0.29850050     0.10200
H1494       H  0.69944670  0.97387812  0.26936202     0.11300
H1495       H  0.66426479  0.01950320  0.35882583     0.11400
H1496       H  0.63015576  0.99612928  0.31698731     0.13300
H1497       H  0.58420374  0.00274303  0.32829918     0.09800
H1498       H  0.55000379  0.00194281  0.36064851     0.11900
H1499       H  0.60727336  0.00141065  0.42057311     0.08500
H1500       H  0.64079600  0.00136337  0.38876453     0.11300
C1501       C  0.40998695  0.90852140  0.48164994    -0.03300
C1502       C  0.41832944  0.88522577  0.49237781    -0.05900
C1503       C  0.40244297  0.86367569  0.49280328    -0.21000
C1504       C  0.37775845  0.86439023  0.48217856     0.24700
C1505       C  0.36926099  0.88759701  0.47111175    -0.18600
C1506       C  0.38518994  0.90949272  0.47100043    -0.08500
C1507       C  0.36139142  0.84089726  0.48475170    -0.18800
C1508       C  0.34092090  0.83525060  0.46989143    -0.23600
C1509       C  0.32407268  0.81204724  0.47336474     0.26800
C1510       C  0.30450382  0.80744906  0.45535234    -0.20400
C1511       C  0.28632754  0.78794650  0.45921689    -0.10000
C1512       C  0.28718723  0.77252320  0.48126453    -0.10600
C1513       C  0.30749470  0.77605678  0.49860295    -0.03500
C1514       C  0.32574163  0.79546240  0.49473928    -0.18600
H1515       H  0.43721515  0.88367139  0.50086140     0.10500
H1516       H  0.40954698  0.84625960  0.50160068     0.10500
H1517       H  0.35019792  0.88912095  0.46310794     0.10200
H1518       H  0.37821896  0.92705800  0.46242714     0.11300
H1519       H  0.36731923  0.82737335  0.49933222     0.11400
H1520       H  0.33611904  0.84821638  0.45433938     0.13300
H1521       H  0.30252534  0.81978418  0.43875228     0.09800
H1522       H  0.27042250  0.78623928  0.44598738     0.11900
H1523       H  0.30818761  0.76489666  0.51612861     0.08500
H1524       H  0.34011251  0.79802160  0.50938797     0.11300
C1525       C  0.70078385  0.77688607  0.48827792    -0.03300
C1526       C  0.67903523  0.77328235  0.50383121    -0.05900
C1527       C  0.65805332  0.79022478  0.50231679    -0.21000
C1528       C  0.65840535  0.81137047  0.48546985     0.24700
C1529       C  0.67966728  0.81409853  0.46893061    -0.18600
C1530       C  0.70057188  0.79718195  0.47044746    -0.08500
C1531       C  0.63646178  0.83012779  0.48581544    -0.18800
C1532       C  0.63864136  0.85502974  0.47859017    -0.23600
C1533       C  0.61754640  0.87473725  0.47972238     0.26800
C1534       C  0.62401760  0.90076704  0.47660804    -0.20400
C1535       C  0.60518817  0.92002789  0.47698768    -0.10000
C1536       C  0.57912620  0.91388315  0.48026858    -0.10600
C1537       C  0.57256164  0.88780724  0.48339532    -0.03500
C1538       C  0.59143603  0.86852558  0.48311635    -0.18600
H1539       H  0.67888861  0.75826927  0.51818492     0.10500
H1540       H  0.64192483  0.78742247  0.51516961     0.10500
H1541       H  0.68047401  0.82949687  0.45505229     0.10200
H1542       H  0.71721207  0.80062464  0.45842285     0.11300
H1543       H  0.61847455  0.82340747  0.49384919     0.11400
H1544       H  0.65732019  0.86189085  0.47242888     0.13300
H1545       H  0.64386010  0.90630293  0.47383439     0.09800
H1546       H  0.61108869  0.93976194  0.47444856     0.11900
H1547       H  0.55272024  0.88218942  0.48597621     0.08500
H1548       H  0.58531204  0.84884461  0.48515534     0.11300
C1549       C  0.57381921  0.08920448  0.47903379    -0.03300
C1550       C  0.56561472  0.11314597  0.46968164    -0.05900
C1551       C  0.58239440  0.13401303  0.46857542    -0.21000
C1552       C  0.60771627  0.13180871  0.47727998     0.24700
C1553       C  0.61594718  0.10803421  0.48718364    -0.18600
C1554       C  0.59920578  0.08687410  0.48785100    -0.08500
C1555       C  0.62537370  0.15411931  0.47396443    -0.18800
C1556       C  0.64482565  0.15943519  0.49010872    -0.23600
C1557       C  0.66336298  0.18103783  0.48637637     0.26800
C1558       C  0.67692527  0.19021943  0.50775297    -0.20400
C1559       C  0.69721239  0.20760561  0.50477858    -0.10000
C1560       C  0.70467176  0.21607336  0.48030167    -0.10600
C1561       C  0.69042758  0.20786993  0.45892162    -0.03500
C1562       C  0.66980102  0.19073701  0.46191309    -0.18600
H1563       H  0.54622506  0.11568771  0.46269724     0.10500
H1564       H  0.57555455  0.15200199  0.46078790     0.10500
H1565       H  0.63549344  0.10554529  0.49368144     0.10200
H1566       H  0.60606512  0.06877206  0.49533939     0.11300
H1567       H  0.62146065  0.16714084  0.45819855     0.11400
H1568       H  0.64711049  0.14768138  0.50716506     0.13300
H1569       H  0.67258582  0.18298537  0.52676844     0.09800
H1570       H  0.70845979  0.21282498  0.52143354     0.11900
H1571       H  0.69641971  0.21329947  0.43974850     0.08500
H1572       H  0.66023821  0.18376638  0.44487947     0.11300
C1573       C  0.40345511  0.08396435  0.47925553    -0.03300
C1574       C  0.37733643  0.07724990  0.47821293    -0.05900
C1575       C  0.35831650  0.09611319  0.47550698    -0.21000
C1576       C  0.36472793  0.12227570  0.47391596     0.24700
C1577       C  0.39087132  0.12902919  0.47483838    -0.18600
C1578       C  0.40990575  0.11016584  0.47749796    -0.08500
C1579       C  0.34366534  0.14160482  0.47040250    -0.18800
C1580       C  0.34594932  0.16704392  0.47525295    -0.23600
C1581       C  0.32439777  0.18601492  0.47276366     0.26800
C1582       C  0.32570287  0.20935461  0.48631683    -0.20400
C1583       C  0.30480605  0.22641643  0.48672366    -0.10000
C1584       C  0.28219163  0.22064818  0.47334963    -0.10600
C1585       C  0.28164553  0.19835906  0.45813826    -0.03500
C1586       C  0.30248010  0.18132058  0.45771088    -0.18600
H1587       H  0.37153172  0.05735273  0.47925293     0.10500
H1588       H  0.33842015  0.09018837  0.47464319     0.10500
H1589       H  0.39686704  0.14877124  0.47295855     0.10200
H1590       H  0.42978244  0.11618289  0.47788163     0.11300
H1591       H  0.32513157  0.13412516  0.46467410     0.11400
H1592       H  0.36383731  0.17421884  0.48303000     0.13300
H1593       H  0.34243050  0.21377989  0.49778251     0.09800
H1594       H  0.30559986  0.24313408  0.49901793     0.11900
H1595       H  0.26433463  0.19329701  0.44785526     0.08500
H1596       H  0.30093773  0.16419488  0.44613792     0.11300
C1597       C  0.91899264  0.98812567  0.58428950    -0.03300
C1598       C  0.89331600  0.98377163  0.57739118    -0.05900
C1599       C  0.87391890  0.98260838  0.59618313    -0.21000
C1600       C  0.87944281  0.98597385  0.62243991     0.24700
C1601       C  0.90505105  0.99088312  0.62937682    -0.18600
C1602       C  0.92448805  0.99188176  0.61060394    -0.08500
C1603       C  0.85823211  0.98243138  0.64175088    -0.18800
C1604       C  0.85883209  0.98991983  0.66669184    -0.23600
C1605       C  0.83692674  0.98522693  0.68487843     0.26800
C1606       C  0.83111883  0.00315725  0.70428066    -0.20400
C1607       C  0.80912894  0.00025200  0.71980850    -0.10000
C1608       C  0.79280339  0.97909516  0.71653167    -0.10600
C1609       C  0.79979277  0.96017521  0.69858011    -0.03500
C1610       C  0.82153184  0.96316592  0.68297657    -0.18600
H1611       H  0.88823410  0.98071754  0.55748672     0.10500
H1612       H  0.85443845  0.97870924  0.59014564     0.10500
H1613       H  0.91037005  0.99320291  0.64929384     0.10200
H1614       H  0.94398713  0.99531037  0.61684626     0.11300
H1615       H  0.84079262  0.97350295  0.63471392     0.11400
H1616       H  0.87500069  0.00093473  0.67371922     0.13300
H1617       H  0.84281547  0.02016439  0.70647022     0.09800
H1618       H  0.80394122  0.01536310  0.73309891     0.11900
H1619       H  0.78742912  0.94377546  0.69550984     0.08500
H1620       H  0.82587363  0.94846920  0.66895937     0.11300
C1621       C  0.08856793  0.98577286  0.59840809    -0.03300
C1622       C  0.07842379  0.97961168  0.62274631    -0.05900
C1623       C  0.09407595  0.97886795  0.64455063    -0.21000
C1624       C  0.12032283  0.98465512  0.64294124     0.24700
C1625       C  0.13068050  0.99069641  0.61860947    -0.18600
C1626       C  0.11500648  0.99113480  0.59660508    -0.08500
C1627       C  0.13637181  0.98257043  0.66672358    -0.18800
C1628       C  0.15843373  0.99566539  0.67044953    -0.23600
C1629       C  0.17605381  0.99239468  0.69303150     0.26800
C1630       C  0.19664333  0.00959625  0.69571104    -0.20400
C1631       C  0.21617514  0.00514448  0.71360045    -0.10000
C1632       C  0.21573418  0.98333498  0.72939409    -0.10600
C1633       C  0.19438989  0.96694093  0.72803443    -0.03500
C1634       C  0.17466417  0.97145114  0.71017516    -0.18600
H1635       H  0.05827519  0.97504594  0.62499649     0.10500
H1636       H  0.08555927  0.97379657  0.66285505     0.10500
H1637       H  0.15096583  0.99451340  0.61637829     0.10200
H1638       H  0.12357580  0.99575999  0.57821771     0.11300
H1639       H  0.12918132  0.97020544  0.68184205     0.11400
H1640       H  0.16424498  0.00946111  0.65595196     0.13300
H1641       H  0.19844756  0.02582069  0.68285734     0.09800
H1642       H  0.23282401  0.01757613  0.71355617     0.11900
H1643       H  0.19401914  0.94949195  0.73929161     0.08500
H1644       H  0.15945084  0.95746520  0.70878750     0.11300
C1645       C  0.22482585  0.98668948  0.28786490    -0.03300
C1646       C  0.23074532  0.98192611  0.31377422    -0.05900
C1647       C  0.21150460  0.97618318  0.33159163    -0.21000
C1648       C  0.18566131  0.97514732  0.32399077     0.24700
C1649       C  0.17996092  0.97780018  0.29768951    -0.18600
C1650       C  0.19933777  0.98365683  0.27977319    -0.08500
C1651       C  0.16423372  0.97223333  0.34293814    -0.18800
C1652       C  0.16618971  0.97912455  0.36794606    -0.23600
C1653       C  0.14463323  0.97901697  0.38702973     0.26800
C1654       C  0.14896014  0.98957695  0.41153391    -0.20400
C1655       C  0.12936552  0.99048229  0.43002037    -0.10000
C1656       C  0.10480871  0.98103622  0.42437697    -0.10600
C1657       C  0.10046153  0.97031836  0.39997150    -0.03500
C1658       C  0.12009473  0.96913405  0.38160621    -0.18600
H1659       H  0.25032243  0.98371054  0.32047532     0.10500
H1660       H  0.21702382  0.97304741  0.35133593     0.10500
H1661       H  0.16027989  0.97660674  0.29117528     0.10200
H1662       H  0.19420310  0.98725879  0.25996865     0.11300
H1663       H  0.14593150  0.96610931  0.33532498     0.11400
H1664       H  0.18431189  0.98667023  0.37477618     0.13300
H1665       H  0.16758811  0.99737890  0.41637605     0.09800
H1666       H  0.13330762  0.99901000  0.44855089     0.11900
H1667       H  0.08180608  0.96261714  0.39507440     0.08500
H1668       H  0.11571522  0.96043159  0.36333840     0.11300
C1669       C  0.81474494  0.98477251  0.27074909    -0.03300
C1670       C  0.82005284  0.96054007  0.28121211    -0.05900
C1671       C  0.83952277  0.95740828  0.29954879    -0.21000
C1672       C  0.85423995  0.97839095  0.30796888     0.24700
C1673       C  0.84995421  0.00239247  0.29626387    -0.18600
C1674       C  0.83037577  0.00550435  0.27797957    -0.08500
C1675       C  0.87157887  0.97495363  0.33074506    -0.18800
C1676       C  0.89041955  0.99139675  0.33759081    -0.23600
C1677       C  0.90632761  0.98853106  0.36137827     0.26800
C1678       C  0.93136227  0.99844266  0.36152415    -0.20400
C1679       C  0.94650083  0.99728587  0.38369337    -0.10000
C1680       C  0.93685560  0.98674851  0.40671235    -0.10600
C1681       C  0.91168082  0.97703090  0.40673045    -0.03500
C1682       C  0.89664961  0.97772502  0.38428120    -0.18600
H1683       H  0.80777394  0.94441522  0.27672015     0.10500
H1684       H  0.84217991  0.93871852  0.30819349     0.10500
H1685       H  0.86035310  0.01922681  0.30239621     0.10200
H1686       H  0.82609413  0.02457256  0.27098125     0.11300
H1687       H  0.86860350  0.95795844  0.34241591     0.11400
H1688       H  0.89512481  0.00724973  0.32495263     0.13300
H1689       H  0.93930151  0.00710014  0.34434371     0.09800
H1690       H  0.96574398  0.00509887  0.38289554     0.11900
H1691       H  0.90368367  0.96871835  0.42403687     0.08500
H1692       H  0.87724344  0.97040512  0.38510007     0.11300
C1693       C  0.09404685  0.90177419  0.52644186    -0.03300
C1694       C  0.12031836  0.90769429  0.52660425    -0.05900
C1695       C  0.13764163  0.89156946  0.53884119    -0.21000
C1696       C  0.12913082  0.86913109  0.55090640     0.24700
C1697       C  0.10288461  0.86307900  0.55081744    -0.18600
C1698       C  0.08546423  0.87931319  0.53865681    -0.08500
C1699       C  0.14867495  0.85165460  0.56127442    -0.18800
C1700       C  0.14712441  0.82624871  0.55775071    -0.23600
C1701       C  0.17036501  0.81048362  0.55403590     0.26800
C1702       C  0.16878992  0.78385652  0.55697209    -0.20400
C1703       C  0.18810288  0.76806166  0.54713041    -0.10000
C1704       C  0.20884711  0.77868032  0.53340416    -0.10600
C1705       C  0.21134162  0.80547110  0.53241489    -0.03500
C1706       C  0.19240516  0.82117494  0.54265930    -0.18600
H1707       H  0.12748337  0.92496661  0.51754726     0.10500
H1708       H  0.15786715  0.89637158  0.53842856     0.10500
H1709       H  0.09579829  0.84603112  0.56031244     0.10200
H1710       H  0.06522822  0.87464818  0.53946821     0.11300
H1711       H  0.16693742  0.86008392  0.56666440     0.11400
H1712       H  0.12894565  0.81747706  0.55264008     0.13300
H1713       H  0.15193257  0.77522113  0.56557454     0.09800
H1714       H  0.18593323  0.74750329  0.54883957     0.11900
H1715       H  0.22663326  0.81451235  0.52163234     0.08500
H1716       H  0.19404763  0.84155584  0.53923405     0.11300
C1717       C  0.79124992  0.78614022  0.51560074    -0.03300
C1718       C  0.78971707  0.80498412  0.53477429    -0.05900
C1719       C  0.81079693  0.82085724  0.53959899    -0.21000
C1720       C  0.83323105  0.81830033  0.52490045     0.24700
C1721       C  0.83489564  0.79895997  0.50627122    -0.18600
C1722       C  0.81407253  0.78311847  0.50159962    -0.08500
C1723       C  0.85416678  0.83702126  0.52742935    -0.18800
C1724       C  0.86460482  0.84715320  0.50616839    -0.23600
C1725       C  0.88508845  0.86644417  0.50637085     0.26800
C1726       C  0.88593999  0.88417172  0.48619566    -0.20400
C1727       C  0.90556912  0.90216354  0.48487652    -0.10000
C1728       C  0.92501961  0.90211822  0.50331815    -0.10600
C1729       C  0.92453993  0.88416066  0.52335804    -0.03500
C1730       C  0.90446785  0.86652123  0.52506766    -0.18600
H1731       H  0.77227856  0.80741250  0.54586550     0.10500
H1732       H  0.80927981  0.83571647  0.55404250     0.10500
H1733       H  0.85218314  0.79645230  0.49494774     0.10200
H1734       H  0.81559971  0.76880480  0.48660146     0.11300
H1735       H  0.85960636  0.84380642  0.54636094     0.11400
H1736       H  0.85675125  0.84203841  0.48753182     0.13300
H1737       H  0.87126668  0.88417534  0.47150198     0.09800
H1738       H  0.90578918  0.91590446  0.46928107     0.11900
H1739       H  0.93944627  0.88407910  0.53782020     0.08500
H1740       H  0.90445770  0.85265396  0.54052890     0.11300
C1741       C  0.92864875  0.07283173  0.48645442    -0.03300
C1742       C  0.93691548  0.09795029  0.48118074    -0.05900
C1743       C  0.91914357  0.11759235  0.47768051    -0.21000
C1744       C  0.89279115  0.11253647  0.47904892     0.24700
C1745       C  0.88441150  0.08733838  0.48369461    -0.18600
C1746       C  0.90219975  0.06765696  0.48727661    -0.08500
C1747       C  0.87471541  0.13429105  0.47755741    -0.18800
C1748       C  0.85040015  0.13192884  0.46940864    -0.23600
C1749       C  0.83216722  0.15366227  0.46971539     0.26800
C1750       C  0.81189391  0.15405565  0.45208042    -0.20400
C1751       C  0.79390636  0.17391099  0.45255264    -0.10000
C1752       C  0.79585355  0.19362313  0.47080525    -0.10600
C1753       C  0.81607456  0.19314256  0.48853798    -0.03500
C1754       C  0.83398966  0.17332190  0.48809635    -0.18600
H1755       H  0.95714738  0.10256301  0.48007859     0.10500
H1756       H  0.92600365  0.13687873  0.47415580     0.10500
H1757       H  0.86420663  0.08291684  0.48551252     0.10200
H1758       H  0.89521013  0.04853493  0.49133558     0.11300
H1759       H  0.88200439  0.15305807  0.48283292     0.11400
H1760       H  0.84381496  0.11379601  0.46160069     0.13300
H1761       H  0.80999768  0.13897909  0.43791515     0.09800
H1762       H  0.77845110  0.17386522  0.43870105     0.11900
H1763       H  0.81758504  0.20771958  0.50326410     0.08500
H1764       H  0.84876505  0.17309318  0.50264435     0.11300
C1765       C  0.09558036  0.07011889  0.52192643    -0.03300
C1766       C  0.12199215  0.06620767  0.51842135    -0.05900
C1767       C  0.13937446  0.08541060  0.52506172    -0.21000
C1768       C  0.13062801  0.10866153  0.53542112     0.24700
C1769       C  0.10432880  0.11174964  0.54060918    -0.18600
C1770       C  0.08697331  0.09276635  0.53364765    -0.08500
C1771       C  0.14916470  0.12983605  0.53860538    -0.18800
C1772       C  0.14205457  0.15457222  0.53756511    -0.23600
C1773       C  0.16076654  0.17505573  0.53242203     0.26800
C1774       C  0.15354228  0.19477037  0.51574659    -0.20400
C1775       C  0.17169038  0.21218123  0.50690224    -0.10000
C1776       C  0.19732422  0.21051976  0.51504241    -0.10600
C1777       C  0.20422951  0.19172239  0.53302027    -0.03500
C1778       C  0.18604016  0.17408534  0.54170310    -0.18600
H1779       H  0.12913561  0.04865504  0.50990745     0.10500
H1780       H  0.15959941  0.08247003  0.52121052     0.10500
H1781       H  0.09695383  0.12884044  0.54975351     0.10200
H1782       H  0.06676757  0.09580460  0.53753259     0.11300
H1783       H  0.16942150  0.12499290  0.53777847     0.11400
H1784       H  0.12195934  0.15963593  0.53576689     0.13300
H1785       H  0.13415309  0.19580401  0.50835823     0.09800
H1786       H  0.16585935  0.22620975  0.49275103     0.11900
H1787       H  0.22375122  0.19038409  0.53995016     0.08500
H1788       H  0.19187045  0.15940247  0.55515695     0.11300
C1789       C  0.00788089  0.69966905  0.22037469    -0.03300
C1790       C  0.98942762  0.68041469  0.22417738    -0.05900
C1791       C  0.98608605  0.66082878  0.20593185    -0.21000
C1792       C  0.00111443  0.65989901  0.18343346     0.24700
C1793       C  0.01865022  0.68003327  0.17903621    -0.18600
C1794       C  0.02196204  0.69957765  0.19729912    -0.08500
C1795       C  0.99947051  0.63666284  0.16637632    -0.18800
C1796       C  0.00768511  0.63596248  0.14173865    -0.23600
C1797       C  0.00615274  0.61288772  0.12462266     0.26800
C1798       C  0.00428265  0.61687127  0.09809012    -0.20400
C1799       C  0.00432389  0.59627372  0.08093733    -0.10000
C1800       C  0.00672123  0.57076522  0.08960440    -0.10600
C1801       C  0.00830632  0.56659370  0.11629521    -0.03500
C1802       C  0.00798071  0.58742753  0.13363560    -0.18600
H1803       H  0.97898295  0.67941655  0.24215561     0.10500
H1804       H  0.97250160  0.64564665  0.21000228     0.10500
H1805       H  0.03109439  0.67997865  0.16239820     0.10200
H1806       H  0.03704079  0.71356668  0.19433657     0.11300
H1807       H  0.99053559  0.61962105  0.17434853     0.11400
H1808       H  0.01465403  0.65349826  0.13297164     0.13300
H1809       H  0.00285098  0.63614963  0.09050040     0.09800
H1810       H  0.00278656  0.60055645  0.06065965     0.11900
H1811       H  0.01016491  0.54731921  0.12375231     0.08500
H1812       H  0.00991521  0.58360951  0.15395651     0.11300
C1813       C  0.01212591  0.77317070  0.28599557    -0.03300
C1814       C  0.99119436  0.77206301  0.30301010    -0.05900
C1815       C  0.98786173  0.79097381  0.32198091    -0.21000
C1816       C  0.00549637  0.81126105  0.32456903     0.24700
C1817       C  0.02530470  0.81330416  0.30616092    -0.18600
C1818       C  0.02859581  0.79444486  0.28729762    -0.08500
C1819       C  0.00301167  0.82918269  0.34704775    -0.18800
C1820       C  0.02162144  0.84557625  0.35457432    -0.23600
C1821       C  0.01930150  0.86356216  0.37672050     0.26800
C1822       C  0.03151847  0.88742564  0.37489711    -0.20400
C1823       C  0.03070855  0.90483911  0.39524841    -0.10000
C1824       C  0.01815296  0.89869617  0.41838108    -0.10600
C1825       C  0.00638952  0.87447823  0.42059422    -0.03500
C1826       C  0.00674199  0.85713440  0.39984240    -0.18600
H1827       H  0.97859562  0.75555949  0.30293136     0.10500
H1828       H  0.97222044  0.78895773  0.33556964     0.10500
H1829       H  0.03890685  0.82889647  0.30649613     0.10200
H1830       H  0.04516975  0.79551961  0.27474125     0.11300
H1831       H  0.98534372  0.82845623  0.35813694     0.11400
H1832       H  0.03930644  0.84687336  0.34370544     0.13300
H1833       H  0.04156126  0.89276265  0.35745715     0.09800
H1834       H  0.04013165  0.92319313  0.39288293     0.11900
H1835       H  0.99654810  0.86915975  0.43814060     0.08500
H1836       H  0.99765254  0.83861087  0.40205742     0.11300
C1837       C  0.00517687  0.40169274  0.91333863    -0.03300
C1838       C  0.00330867  0.40841215  0.88725901    -0.05900
C1839       C  0.00150876  0.38943573  0.86829159    -0.21000
C1840       C  0.00169617  0.36327414  0.87480512     0.24700
C1841       C  0.00387856  0.35652711  0.90085021    -0.31200
C1842       C  0.00560217  0.37547539  0.91981644    -0.08500
C1843       C  0.99790374  0.34383570  0.85409734    -0.18800
C1844       C  0.00380948  0.31867916  0.85614340    -0.23600
C1845       C  0.99924696  0.30025163  0.83475123     0.26800
C1846       C  0.01717052  0.28075598  0.82955697    -0.20400
C1847       C  0.01456593  0.26509214  0.80773813    -0.10000
C1848       C  0.99369041  0.26835858  0.79106860    -0.10600
C1849       C  0.97462895  0.28635488  0.79764986    -0.03500
C1850       C  0.97741876  0.30219771  0.81912012    -0.18600
H1851       H  0.00292805  0.42834135  0.88147516     0.10500
H1852       H  0.99973978  0.39524660  0.84840763     0.10500
H1853       H  0.00351456  0.33669140  0.90682979     0.10200
H1854       H  0.00692770  0.36948548  0.93967115     0.11300
H1855       H  0.99039610  0.35078725  0.83594310     0.11400
H1856       H  0.01362575  0.31162355  0.87306065     0.13300
H1857       H  0.03401281  0.27868743  0.84150947     0.09800
H1858       H  0.02978078  0.25180605  0.80287296     0.11900
H1859       H  0.95843162  0.28942554  0.78502606     0.08500
H1860       H  0.96284827  0.31647667  0.82304102     0.11300
C1861       C  0.99606128  0.19956799  0.72013255    -0.03300
C1862       C  0.01640175  0.18232459  0.72393183    -0.05900
C1863       C  0.01874637  0.16027228  0.70844571    -0.21000
C1864       C  0.00102567  0.15520721  0.68866677     0.24700
C1865       C  0.97969611  0.17157482  0.68628837    -0.18600
C1866       C  0.97734155  0.19341254  0.70172299    -0.08500
C1867       C  0.00540000  0.13314115  0.67060802    -0.18800
C1868       C  0.99631069  0.13281831  0.64622674    -0.23600
C1869       C  0.00033584  0.11192866  0.62677474     0.26800
C1870       C  0.99257354  0.11653940  0.60131457    -0.20400
C1871       C  0.99501502  0.09769770  0.58229428    -0.10000
C1872       C  0.00499519  0.07343653  0.58820575    -0.10600
C1873       C  0.01292145  0.06869123  0.61363031    -0.03500
C1874       C  0.01074567  0.08770273  0.63267220    -0.18600
H1875       H  0.03131163  0.18673288  0.73767658     0.10500
H1876       H  0.03516220  0.14783132  0.71107247     0.10500
H1877       H  0.96496411  0.16793655  0.67217280     0.10200
H1878       H  0.96148550  0.20639364  0.69832139     0.11300
H1879       H  0.01760160  0.11768428  0.67721791     0.11400
H1880       H  0.98577250  0.14943289  0.63951078     0.13300
H1881       H  0.98438426  0.13487722  0.59606556     0.09800
H1882       H  0.98854742  0.10198032  0.56302361     0.11900
H1883       H  0.02083473  0.05021830  0.61882892     0.08500
H1884       H  0.01682230  0.08308281  0.65194124     0.11300
C1885       C  0.02509106  0.71340193  0.79981911    -0.03300
C1886       C  0.00175828  0.71185061  0.81330146    -0.05900
C1887       C  0.99899725  0.69490421  0.83421093    -0.21000
C1888       C  0.01931145  0.67878665  0.84188539     0.24700
C1889       C  0.04324618  0.68197222  0.82973159    -0.18600
C1890       C  0.04609430  0.69914206  0.80917252    -0.08500
C1891       C  0.01475110  0.65882295  0.86228852    -0.18800
C1892       C  0.02838550  0.63671968  0.86433621    -0.23600
C1893       C  0.02325409  0.61580620  0.88365922     0.26800
C1894       C  0.03346871  0.59117139  0.87928580    -0.20400
C1895       C  0.02930876  0.57103179  0.89676524    -0.10000
C1896       C  0.01522552  0.57502221  0.91949404    -0.10600
C1897       C  0.00543984  0.59975607  0.92420346    -0.03500
C1898       C  0.00921632  0.61980979  0.90649581    -0.18600
H1899       H  0.98511602  0.72219982  0.80646236     0.10500
H1900       H  0.98043887  0.69331841  0.84347808     0.10500
H1901       H  0.05970097  0.67079896  0.83558838     0.10200
H1902       H  0.06437165  0.69988550  0.79923848     0.11300
H1903       H  0.99837714  0.66176186  0.87483267     0.11400
H1904       H  0.04336170  0.63296980  0.85030975     0.13300
H1905       H  0.04467759  0.58741782  0.86214745     0.09800
H1906       H  0.03758391  0.55241399  0.89273200     0.11900
H1907       H  0.99470122  0.60359359  0.94161555     0.08500
H1908       H  0.00151140  0.63848960  0.91109889     0.11300
C1909       C  0.00893639  0.77927152  0.72717361    -0.03300
C1910       C  0.02420052  0.80100955  0.73154910    -0.05900
C1911       C  0.02217293  0.82267955  0.71554441    -0.21000
C1912       C  0.00509746  0.82299723  0.69461105     0.24700
C1913       C  0.98836503  0.80204507  0.69160969    -0.18600
C1914       C  0.99030317  0.78051909  0.70763969    -0.08500
C1915       C  0.00559179  0.84507640  0.67607241    -0.18800
C1916       C  0.99916555  0.84281360  0.65093596    -0.23600
C1917       C  0.00051889  0.86380554  0.63114292     0.26800
C1918       C  0.99626866  0.85741782  0.60522712    -0.20400
C1919       C  0.99735975  0.87605525  0.58583076    -0.10000
C1920       C  0.00258005  0.90183338  0.59172277    -0.10600
C1921       C  0.00651540  0.90838782  0.61766886    -0.03500
C1922       C  0.00554955  0.88968427  0.63710213    -0.18600
H1923       H  0.03894847  0.80054615  0.74614119     0.10500
H1924       H  0.03501809  0.83868544  0.71866458     0.10500
H1925       H  0.97418170  0.80188760  0.67648441     0.10200
H1926       H  0.97822159  0.76407841  0.70378528     0.11300
H1927       H  0.01312817  0.86307947  0.68314859     0.11400
H1928       H  0.99340959  0.82407325  0.64398274     0.13300
H1929       H  0.99217430  0.83778369  0.59987039     0.09800
H1930       H  0.99402743  0.87021821  0.56616707     0.11900
H1931       H  0.01060801  0.92802152  0.62300094     0.08500
H1932       H  0.00862704  0.89577399  0.65666875     0.11300
C1933       C  0.21387855  0.70814510  0.47018574    -0.03300
C1934       C  0.22176454  0.68275779  0.47423230    -0.05900
C1935       C  0.20482724  0.66231308  0.46959112    -0.21000
C1936       C  0.17955771  0.66684771  0.46121394     0.24700
C1937       C  0.17255398  0.69213894  0.45495339    -0.18600
C1938       C  0.18950024  0.71250406  0.45946820    -0.08500
C1939       C  0.16082564  0.64503211  0.46055768    -0.18800
C1940       C  0.13525217  0.64798623  0.46444706    -0.23600
C1941       C  0.11608813  0.62658478  0.46708521     0.26800
C1942       C  0.08981620  0.63277858  0.46793586    -0.20400
C1943       C  0.07106285  0.61376984  0.47138111    -0.10000
C1944       C  0.07794220  0.58781033  0.47407928    -0.10600
C1945       C  0.10424311  0.58156331  0.47331143    -0.03500
C1946       C  0.12304232  0.60062037  0.46994075    -0.18600
H1947       H  0.24024680  0.67886024  0.48284226     0.10500
H1948       H  0.21093915  0.64301640  0.47418424     0.10500
H1949       H  0.15370976  0.69640972  0.44742880     0.10200
H1950       H  0.18292136  0.73192974  0.45623399     0.11300
H1951       H  0.16882513  0.62595833  0.45876668     0.11400
H1952       H  0.12777882  0.66725908  0.46679644     0.13300
H1953       H  0.08369849  0.65252182  0.46596188     0.09800
H1954       H  0.05109471  0.61948133  0.47178010     0.11900
H1955       H  0.11039251  0.56185776  0.47540742     0.08500
H1956       H  0.14291375  0.59476861  0.46997074     0.11300
C1957       C  0.90458555  0.41410636  0.48239767    -0.03300
C1958       C  0.91105832  0.38854054  0.48802413    -0.05900
C1959       C  0.89214446  0.36944131  0.48972663    -0.21000
C1960       C  0.86600613  0.37499435  0.48575409     0.24700
C1961       C  0.85937909  0.40053906  0.47986423    -0.18600
C1962       C  0.87839555  0.41979606  0.47832152    -0.08500
C1963       C  0.84690758  0.35343223  0.48865258    -0.18800
C1964       C  0.82134954  0.35428923  0.48356898    -0.23600
C1965       C  0.80405479  0.33124392  0.48626095     0.26800
C1966       C  0.78196577  0.32884482  0.47082648    -0.20400
C1967       C  0.76748593  0.30597752  0.47064870    -0.10000
C1968       C  0.77466492  0.28513339  0.48614336    -0.10600
C1969       C  0.79512919  0.28857469  0.50340078    -0.03500
C1970       C  0.80956896  0.31122153  0.50350840    -0.18600
H1971       H  0.93083920  0.38324444  0.49146101     0.10500
H1972       H  0.89807139  0.35008454  0.49433425     0.10500
H1973       H  0.83960486  0.40589372  0.47671846     0.10200
H1974       H  0.87255118  0.43920039  0.47386842     0.11300
H1975       H  0.85490451  0.33523549  0.49475397     0.11400
H1976       H  0.81304542  0.37165737  0.47576106     0.13300
H1977       H  0.77673889  0.34413828  0.45779928     0.09800
H1978       H  0.75182673  0.30398052  0.45717709     0.11900
H1979       H  0.80086723  0.27304498  0.51594179     0.08500
H1980       H  0.82545993  0.31264494  0.51673808     0.11300
C1981       C  0.08040015  0.41695184  0.47852531    -0.03300
C1982       C  0.10444042  0.42575967  0.48710463    -0.05900
C1983       C  0.12556288  0.40939928  0.48838168    -0.21000
C1984       C  0.12364697  0.38374374  0.48072426     0.24700
C1985       C  0.09958356  0.37456952  0.47237058    -0.18600
C1986       C  0.07811356  0.39101604  0.47141379    -0.08500
C1987       C  0.14706964  0.36732902  0.48288139    -0.18800
C1988       C  0.15180285  0.34647339  0.46827728    -0.23600
C1989       C  0.17552369  0.33032545  0.47057162     0.26800
C1990       C  0.18213790  0.31370833  0.45033319    -0.20400
C1991       C  0.20195077  0.29566560  0.45307860    -0.10000
C1992       C  0.21559991  0.29370267  0.47620744    -0.10600
C1993       C  0.21016584  0.31143620  0.49583384    -0.03500
C1994       C  0.19040042  0.32948778  0.49312558    -0.18600
H1995       H  0.10701256  0.44545233  0.49314038     0.10500
H1996       H  0.14365537  0.41696845  0.49521630     0.10500
H1997       H  0.09719779  0.35468906  0.46698585     0.10200
H1998       H  0.05987271  0.38352936  0.46492916     0.11300
H1999       H  0.16173854  0.37385113  0.49608769     0.11400
H2000       H  0.13807049  0.34126789  0.45353492     0.13300
H2001       H  0.17103819  0.31375940  0.43278424     0.09800
H2002       H  0.20494566  0.28163489  0.43803983     0.11900
H2003       H  0.21957829  0.30964932  0.51426633     0.08500
H2004       H  0.18575606  0.34136376  0.50949462     0.11300
C2005       C  0.90469749  0.58626107  0.48211184    -0.03300
C2006       C  0.90880037  0.61135334  0.49104524    -0.05900
C2007       C  0.88838868  0.62889634  0.49261004    -0.21000
C2008       C  0.86343347  0.62207763  0.48483423     0.24700
C2009       C  0.85950963  0.59723471  0.47511054    -0.18600
C2010       C  0.87982798  0.57957672  0.47389541    -0.08500
C2011       C  0.84185038  0.64063676  0.48917469    -0.18800
C2012       C  0.81888714  0.64020849  0.47699141    -0.23600
C2013       C  0.79806486  0.65914173  0.48297758     0.26800
C2014       C  0.78296794  0.66970930  0.46323049    -0.20400
C2015       C  0.76584012  0.69003812  0.46831579    -0.10000
C2016       C  0.76303022  0.69969749  0.49337583    -0.10600
C2017       C  0.77596389  0.68698084  0.51342536    -0.03500
C2018       C  0.79344986  0.66724107  0.50829037    -0.18600
H2019       H  0.92761922  0.61720871  0.49757249     0.10500
H2020       H  0.89205546  0.64783200  0.50029290     0.10500
H2021       H  0.84060832  0.59101352  0.46928990     0.10200
H2022       H  0.87595749  0.56048759  0.46672755     0.11300
H2023       H  0.84532950  0.65588562  0.50293902     0.11400
H2024       H  0.81572705  0.62679021  0.46140398     0.13300
H2025       H  0.78575221  0.66347874  0.44358667     0.09800
H2026       H  0.75654411  0.69960300  0.45240948     0.11900
H2027       H  0.77435002  0.69402740  0.53293094     0.08500
H2028       H  0.80405114  0.65893946  0.52408632     0.11300
C2029       C  0.07892039  0.50407319  0.39309171    -0.03300
C2030       C  0.07439293  0.50316241  0.36651495    -0.05900
C2031       C  0.09487316  0.50490258  0.34891020    -0.21000
C2032       C  0.12044951  0.50757780  0.35727580     0.24700
C2033       C  0.12497112  0.50840119  0.38386774    -0.18600
C2034       C  0.10458626  0.50661146  0.40140760    -0.08500
C2035       C  0.14148159  0.51024990  0.33764145    -0.18800
C2036       C  0.16696709  0.50814732  0.34246775    -0.23600
C2037       C  0.18705039  0.50936990  0.32183493     0.26800
C2038       C  0.18373149  0.52390011  0.29930796    -0.20400
C2039       C  0.20117942  0.52174955  0.27884138    -0.10000
C2040       C  0.22238704  0.50517060  0.28043460    -0.10600
C2041       C  0.22688328  0.49236142  0.30370189    -0.03500
C2042       C  0.20958512  0.49472587  0.32430874    -0.18600
H2043       H  0.05503615  0.50121485  0.35929011     0.10500
H2044       H  0.09066635  0.50424707  0.32856874     0.10500
H2045       H  0.14410037  0.51093966  0.39139234     0.10200
H2046       H  0.10906133  0.50757624  0.42167186     0.11300
H2047       H  0.13544763  0.51305581  0.31791046     0.11400
H2048       H  0.17339846  0.50320647  0.36160961     0.13300
H2049       H  0.16712382  0.53612305  0.29701333     0.09800
H2050       H  0.19692112  0.53136947  0.26092199     0.11900
H2051       H  0.24263721  0.47891219  0.30519531     0.08500
H2052       H  0.21288799  0.48361059  0.34154739     0.11300
C2053       C  0.76347359  0.50858997  0.27810956    -0.03300
C2054       C  0.77517406  0.53275030  0.28045644    -0.05900
C2055       C  0.79419111  0.53708600  0.29913288    -0.21000
C2056       C  0.80212208  0.51735096  0.31580429     0.24700
C2057       C  0.78905341  0.49370464  0.31442485    -0.18600
C2058       C  0.76990959  0.48955972  0.29606086    -0.08500
C2059       C  0.82542450  0.52123867  0.33246592    -0.18800
C2060       C  0.83200996  0.50528549  0.35186073    -0.23600
C2061       C  0.85592200  0.50674168  0.36779637     0.26800
C2062       C  0.85671356  0.49185742  0.39022793    -0.20400
C2063       C  0.87873251  0.49080506  0.40538150    -0.10000
C2064       C  0.90101321  0.50442412  0.39858143    -0.10600
C2065       C  0.90052031  0.51942663  0.37610559    -0.03500
C2066       C  0.87813378  0.52070373  0.36088937    -0.18600
H2067       H  0.77136096  0.54750084  0.26634422     0.10500
H2068       H  0.80379672  0.55548594  0.29953716     0.10500
H2069       H  0.79460528  0.47754545  0.32609265     0.10200
H2070       H  0.76204635  0.47044338  0.29405394     0.11300
H2071       H  0.83753329  0.53765508  0.32835874     0.11400
H2072       H  0.81886962  0.49005008  0.35702648     0.13300
H2073       H  0.84012572  0.48077862  0.39610784     0.09800
H2074       H  0.87833433  0.47905630  0.42253054     0.11900
H2075       H  0.91724474  0.53043910  0.37054648     0.08500
H2076       H  0.87850238  0.53220199  0.34362339     0.11300
C2077       C  0.08184189  0.50051910  0.56218265    -0.03300
C2078       C  0.10403586  0.51445007  0.55573531    -0.05900
C2079       C  0.12477203  0.51592306  0.57264045    -0.21000
C2080       C  0.12431597  0.50304714  0.59629054     0.24700
C2081       C  0.10202787  0.48915374  0.60297616    -0.18600
C2082       C  0.08092940  0.48807366  0.58614196    -0.08500
C2083       C  0.14717969  0.50552219  0.61348298    -0.18800
C2084       C  0.15390182  0.48815571  0.63150680    -0.23600
C2085       C  0.17704897  0.49040017  0.64851150     0.26800
C2086       C  0.18472858  0.46886718  0.66283651    -0.20400
C2087       C  0.20418243  0.47069284  0.68133282    -0.10000
C2088       C  0.21645859  0.49415119  0.68606728    -0.10600
C2089       C  0.20986743  0.51538492  0.67083473    -0.03500
C2090       C  0.19048095  0.51358595  0.65224401    -0.18600
H2091       H  0.10528041  0.52455722  0.53760705     0.10500
H2092       H  0.14143672  0.52702685  0.56704593     0.10500
H2093       H  0.10063087  0.47948938  0.62129948     0.10200
H2094       H  0.06407049  0.47725901  0.59169788     0.11300
H2095       H  0.15969412  0.52172279  0.60988716     0.11400
H2096       H  0.14226410  0.47103103  0.63361792     0.13300
H2097       H  0.17479305  0.45077961  0.66057813     0.09800
H2098       H  0.20813963  0.45429211  0.69343928     0.11900
H2099       H  0.21832303  0.53393276  0.67477287     0.08500
H2100       H  0.18513810  0.53085945  0.64215770     0.11300
C2101       C  0.77469256  0.48536728  0.69346799    -0.03300
C2102       C  0.77112188  0.50582319  0.67629460    -0.05900
C2103       C  0.78604085  0.50761433  0.65375541    -0.21000
C2104       C  0.80508732  0.48925823  0.64815427     0.24700
C2105       C  0.80671752  0.46749759  0.66398654    -0.18600
C2106       C  0.79161989  0.46553425  0.68621994    -0.08500
C2107       C  0.82347565  0.49367812  0.62634907    -0.18800
C2108       C  0.84836226  0.48604445  0.62706276    -0.23600
C2109       C  0.86820277  0.49117207  0.60664340     0.26800
C2110       C  0.89425071  0.48694591  0.61243441    -0.20400
C2111       C  0.91351243  0.49024856  0.59379371    -0.10000
C2112       C  0.90731547  0.49761948  0.56858048    -0.10600
C2113       C  0.88128988  0.50230300  0.56286119    -0.03500
C2114       C  0.86202367  0.49915338  0.58157010    -0.18600
H2115       H  0.75827179  0.52137847  0.68122627     0.10500
H2116       H  0.78386362  0.52426935  0.64155042     0.10500
H2117       H  0.82024895  0.45234432  0.65969447     0.10200
H2118       H  0.79443830  0.44922029  0.69876434     0.11300
H2119       H  0.81679790  0.50531717  0.61047988     0.11400
H2120       H  0.85503936  0.47626255  0.64419465     0.13300
H2121       H  0.89976215  0.48076552  0.63149184     0.09800
H2122       H  0.93322840  0.48636007  0.59901200     0.11900
H2123       H  0.87568143  0.50806033  0.54370998     0.08500
H2124       H  0.84232825  0.50235840  0.57599909     0.11300
C2125       C  0.01121028  0.58619628  0.39748915    -0.03300
C2126       C  0.00650557  0.58359950  0.37108828    -0.05900
C2127       C  0.02044953  0.59807059  0.35332145    -0.21000
C2128       C  0.03975011  0.61492077  0.36154962     0.24700
C2129       C  0.04352347  0.61849536  0.38802620    -0.18600
C2130       C  0.02934018  0.60429171  0.40578666    -0.08500
C2131       C  0.05438620  0.62939126  0.34194299    -0.18800
C2132       C  0.07661947  0.64182653  0.34632169    -0.23600
C2133       C  0.08461537  0.66163017  0.32789818     0.26800
C2134       C  0.08245411  0.68710689  0.33570155    -0.20400
C2135       C  0.07523305  0.70570985  0.31794861    -0.10000
C2136       C  0.07081335  0.69898207  0.29200206    -0.10600
C2137       C  0.07997816  0.67487796  0.28369753    -0.03500
C2138       C  0.08604351  0.65601019  0.30165028    -0.18600
H2139       H  0.99261274  0.56981551  0.36416727     0.10500
H2140       H  0.01667309  0.59552568  0.33303361     0.10500
H2141       H  0.05739139  0.63209136  0.39522622     0.10200
H2142       H  0.03352377  0.60654804  0.42600920     0.11300
H2143       H  0.04551774  0.63114559  0.32313326     0.11400
H2144       H  0.08580930  0.64130631  0.36495414     0.13300
H2145       H  0.08220959  0.69189649  0.35594897     0.09800
H2146       H  0.07028512  0.72419380  0.32572720     0.11900
H2147       H  0.07994142  0.66941014  0.26370679     0.08500
H2148       H  0.08882549  0.63645684  0.29523182     0.11300
C2149       C  0.99565868  0.41067282  0.56202999    -0.03300
C2150       C  0.99445793  0.38473984  0.55474989    -0.05900
C2151       C  0.99527391  0.36536604  0.57327544    -0.21000
C2152       C  0.99736901  0.37136936  0.59947067     0.24700
C2153       C  0.99830645  0.39733598  0.60676074    -0.18600
C2154       C  0.99756988  0.41667598  0.58825817    -0.08500
C2155       C  0.99750113  0.34999964  0.61838203    -0.18800
C2156       C  0.00307537  0.35276581  0.64348517    -0.23600
C2157       C  0.00192586  0.33136139  0.66221659     0.26800
C2158       C  0.01547324  0.33365002  0.68534457    -0.20400
C2159       C  0.01437090  0.31424608  0.70375739    -0.10000
C2160       C  0.99946709  0.29222298  0.69949309    -0.10600
C2161       C  0.98568399  0.29002587  0.67649640    -0.03500
C2162       C  0.98681309  0.30939426  0.65807396    -0.18600
H2163       H  0.99280281  0.37935824  0.53474396     0.10500
H2164       H  0.99422377  0.34557050  0.56708485     0.10500
H2165       H  0.99917258  0.40308738  0.62664699     0.10200
H2166       H  0.99836405  0.43641690  0.59461076     0.11300
H2167       H  0.99327139  0.33104280  0.61097792     0.11400
H2168       H  0.00943969  0.37112274  0.65078427     0.13300
H2169       H  0.02705628  0.35046260  0.68912794     0.09800
H2170       H  0.02537401  0.31637679  0.72123373     0.11900
H2171       H  0.97354657  0.27355836  0.67297969     0.08500
H2172       H  0.97525159  0.30728278  0.64101367     0.11300
C2173       C  0.00356312  0.58186283  0.56837025    -0.03300
C2174       C  0.00250987  0.60835243  0.56372952    -0.05900
C2175       C  0.00925065  0.62571341  0.58295479    -0.21000
C2176       C  0.01726891  0.61700134  0.60712867     0.24700
C2177       C  0.01868514  0.59044732  0.61162006    -0.18600
C2178       C  0.01170643  0.57313755  0.59253404    -0.08500
C2179       C  0.02416058  0.63622992  0.62689524    -0.18800
C2180       C  0.02631906  0.63071171  0.65201598    -0.23600
C2181       C  0.03058927  0.65056524  0.67174543     0.26800
C2182       C  0.02084063  0.64621128  0.69641698    -0.20400
C2183       C  0.02191405  0.66536764  0.71491992    -0.10000
C2184       C  0.03313308  0.68920124  0.70923708    -0.10600
C2185       C  0.04440722  0.69303420  0.68502994    -0.03500
C2186       C  0.04322829  0.67381166  0.66640602    -0.18600
H2187       H  0.99661175  0.61569326  0.54521795     0.10500
H2188       H  0.00819458  0.64605080  0.57891014     0.10500
H2189       H  0.02562972  0.58270984  0.62952837     0.10200
H2190       H  0.01334028  0.55284330  0.59657692     0.11300
H2191       H  0.02589762  0.65599319  0.62062368     0.11400
H2192       H  0.02234454  0.61153189  0.65891783     0.13300
H2193       H  0.01126595  0.62836066  0.70104421     0.09800
H2194       H  0.01276429  0.66190297  0.73328500     0.11900
H2195       H  0.05366273  0.71103167  0.68037514     0.08500
H2196       H  0.05192021  0.67733690  0.64785452     0.11300
C2197       C  0.01135582  0.25138012  0.19729760    -0.03300
C2198       C  0.99134535  0.25227394  0.17930939    -0.05900
C2199       C  0.99208773  0.26964614  0.15870040    -0.21000
C2200       C  0.01257765  0.28699707  0.15579910     0.24700
C2201       C  0.03351376  0.28480528  0.17272055    -0.18600
C2202       C  0.03283257  0.26725997  0.19322244    -0.08500
C2203       C  0.01078270  0.30745966  0.13555805    -0.18800
C2204       C  0.02306469  0.33035220  0.13669320    -0.23600
C2205       C  0.01922543  0.35192947  0.11791763     0.26800
C2206       C  0.02633307  0.37696980  0.12508983    -0.20400
C2207       C  0.02307627  0.39777911  0.10827441    -0.10000
C2208       C  0.01298813  0.39411058  0.08354673    -0.10600
C2209       C  0.00604289  0.36902665  0.07624160    -0.03500
C2210       C  0.00909301  0.34825731  0.09313274    -0.18600
H2211       H  0.97412841  0.24106379  0.18243813     0.10500
H2212       H  0.97575561  0.27064830  0.14592607     0.10500
H2213       H  0.05003305  0.29720832  0.17080432     0.10200
H2214       H  0.04816435  0.26761507  0.20721406     0.11300
H2215       H  0.99695656  0.30426461  0.12037942     0.11400
H2216       H  0.03529662  0.33428109  0.15304928     0.13300
H2217       H  0.03441360  0.38050119  0.14389458     0.09800
H2218       H  0.02899092  0.41668347  0.11446812     0.11900
H2219       H  0.99834071  0.36536326  0.05730199     0.08500
H2220       H  0.00393746  0.32935562  0.08640676     0.11300
C2221       C  0.01259613  0.18833700  0.27387104    -0.03300
C2222       C  0.99685395  0.16667723  0.27111758    -0.05900
C2223       C  0.99871673  0.14601182  0.28842199    -0.21000
C2224       C  0.01590997  0.14672262  0.30924823     0.24700
C2225       C  0.03243602  0.16796425  0.31130311    -0.18600
C2226       C  0.03073324  0.18846923  0.29388168    -0.08500
C2227       C  0.01596925  0.12514674  0.32841971    -0.18800
C2228       C  0.02101282  0.12836837  0.35377932    -0.23600
C2229       C  0.01979419  0.10767745  0.37401987     0.26800
C2230       C  0.02085827  0.11484458  0.40007552    -0.20400
C2231       C  0.02027476  0.09644715  0.41980173    -0.10000
C2232       C  0.01875520  0.07009641  0.41419264    -0.10600
C2233       C  0.01765204  0.06284961  0.38810217    -0.03500
C2234       C  0.01816150  0.08129421  0.36833573    -0.18600
H2235       H  0.98217347  0.16633852  0.25645108     0.10500
H2236       H  0.98582146  0.12989255  0.28622144     0.10500
H2237       H  0.04640818  0.16898753  0.32659913     0.10200
H2238       H  0.04279875  0.20512225  0.29675668     0.11300
H2239       H  0.00979328  0.10655048  0.32154779     0.11400
H2240       H  0.02527587  0.14761695  0.36045462     0.13300
H2241       H  0.02213289  0.13490202  0.40527636     0.09800
H2242       H  0.02109823  0.10295180  0.43952194     0.11900
H2243       H  0.01636678  0.04281166  0.38286401     0.08500
H2244       H  0.01760277  0.07463116  0.34870634     0.11300
C2245       C  0.98382370  0.27808179  0.28291641    -0.03300
C2246       C  0.96464666  0.27531621  0.30165473    -0.05900
C2247       C  0.95914343  0.29552882  0.31833536    -0.21000
C2248       C  0.97262105  0.31869456  0.31633709     0.24700
C2249       C  0.99176289  0.32139843  0.29748518    -0.18600
C2250       C  0.99726157  0.30128460  0.28093643    -0.08500
C2251       C  0.96867401  0.33863816  0.33590957    -0.18800
C2252       C  0.97414451  0.36336041  0.33149448    -0.23600
C2253       C  0.97665509  0.38198365  0.35250202     0.26800
C2254       C  0.97192310  0.40791269  0.34762725    -0.20400
C2255       C  0.97574799  0.42606953  0.36684641    -0.10000
C2256       C  0.98460475  0.41852210  0.39117383    -0.10600
C2257       C  0.98971645  0.39255174  0.39588124    -0.03500
C2258       C  0.98586635  0.37444217  0.37668814    -0.18600
H2259       H  0.95411514  0.25751605  0.30347242     0.10500
H2260       H  0.94462579  0.29298422  0.33304024     0.10500
H2261       H  0.00334202  0.33856116  0.29615781     0.10200
H2262       H  0.01264972  0.30357238  0.26709358     0.11300
H2263       H  0.96234985  0.33257245  0.35485384     0.11400
H2264       H  0.97782540  0.37003073  0.31207285     0.13300
H2265       H  0.96519414  0.41408501  0.32896224     0.09800
H2266       H  0.97153046  0.44596518  0.36271202     0.11900
H2267       H  0.99690233  0.38623061  0.41431725     0.08500
H2268       H  0.99073495  0.35466972  0.38064352     0.11300
loop_ 
_geom_bond_atom_site_label_1 
_geom_bond_atom_site_label_2 
_geom_bond_distance 
_geom_bond_site_symmetry_2 
_ccdc_geom_bond_type 
C1            C2   1.395   1_455  A
C1            C6   1.423       .  A
C1         C2197   1.489       .  S
C2            C3   1.392       .  A
C2            H7   1.086       .  S
C3            C4   1.396       .  A
C3         C2245   1.470       .  S
C4            C5   1.403   1_655  A
C4            H8   1.085       .  S
C5            C6   1.425       .  A
C5         C2221   1.494       .  S
C6            H9   1.082       .  S
O10          C21   1.290       .  A
O10         Eu46   2.445       .  S
O11          C22   1.292   1_655  A
O11         Eu45   2.466       .  S
O12          C23   1.300       .  A
O12         Eu18   2.513       .  S
O13          C24   1.302       .  A
O13         Eu18   2.523   1_455  S
O14          C24   1.288       .  A
O14         Eu48   2.440       .  S
O15          C23   1.290       .  A
O15         Eu47   2.444       .  S
O16          C22   1.289   1_655  A
O16         Eu18   2.442       .  S
O17          C21   1.289       .  A
O17         Eu18   2.438       .  S
Eu18         O28   2.366   1_655  S
Eu18         O20   2.365       .  S
Eu18         O19   2.345   1_655  S
Eu18         O26   2.369       .  S
O19         Eu48   2.335       .  S
O19         Eu45   2.343   1_455  S
O20         Eu46   2.360       .  S
O20         Eu47   2.359       .  S
C21        C2256   1.470       .  S
C22        C2125   1.476       .  S
C23        C2064   1.494       .  S
C24        C2029   1.502       .  S
H25          O26   0.966       .  S
O26         Eu47   2.374       .  S
O26         Eu45   2.363       .  S
H27          O28   0.966       .  S
O28         Eu46   2.367   1_455  S
O28         Eu48   2.365       .  S
O29          C52   1.292       .  A
O29         Eu45   2.459       .  S
O30          C53   1.291       .  A
O30         Eu46   2.451       .  S
O31          C54   1.294       .  A
O31         Eu47   2.471       .  S
O32          C55   1.295       .  A
O32         Eu48   2.485       .  S
O33          C56   1.289       .  A
O33         Eu48   2.442       .  S
O34          C57   1.296       .  A
O34         Eu47   2.489       .  S
O35          C58   1.297       .  A
O35         Eu49   2.491       .  S
O36          C59   1.296       .  A
O36         Eu49   2.491   1_455  S
O37          C58   1.293       .  A
O37         Eu47   2.471       .  S
O38          C59   1.291       .  A
O38         Eu48   2.457       .  S
O39          C54   1.297       .  A
O39         Eu45   2.486       .  S
O40          C57   1.299       .  A
O40         Eu46   2.502       .  S
O41          C56   1.298       .  A
O41         Eu46   2.500   1_455  S
O42          C55   1.295       .  A
O42         Eu45   2.477   1_455  S
O43          C52   1.290       .  A
O43         Eu49   2.443       .  S
O44          C53   1.293       .  A
O44         Eu49   2.466       .  S
Eu45         O63   2.359   1_655  S
Eu45         O51   2.366       .  S
Eu46         O50   2.359   1_655  S
Eu46         O61   2.359       .  S
Eu47         O61   2.357       .  S
Eu47         O51   2.356       .  S
Eu48         O50   2.354       .  S
Eu48         O63   2.339       .  S
Eu49         O50   2.351   1_655  S
Eu49         O61   2.354       .  S
Eu49         O63   2.364   1_655  S
Eu49         O51   2.365       .  S
C52        C2173   1.476   1_655  S
C53        C2149   1.485       .  S
C54        C2005   1.496       .  S
C55        C1944   1.501       .  S
C56        C1981   1.494       .  S
C57        C1957   1.509       .  S
C58        C2112   1.501       .  S
C59        C2077   1.491       .  S
H60          O61   0.966       .  S
H62          O63   0.965       .  S
C64          C65   1.425       .  A
C64          C69   1.400       .  A
C64        C1885   1.499       .  S
C65          C66   1.425       .  A
C65          H70   1.083       .  S
C66          C67   1.404       .  A
C66        C1909   1.497       .  S
C67          C68   1.396       .  A
C67          H71   1.084       .  S
C68          C69   1.393       .  A
C68        C2184   1.478       .  S
C69          H72   1.084       .  S
C73          C74   1.421       .  A
C73          C78   1.401       .  A
C73        C1848   1.489       .  S
C74          C75   1.421       .  A
C74          H79   1.083       .  S
C75          C76   1.403       .  A
C75        C1861   1.493       .  S
C76          C77   1.397       .  A
C76          H80   1.084   1_655  S
C77          C78   1.394       .  A
C77        C2160   1.480       .  S
C78          H81   1.084       .  S
C82          C83   1.401       .  A
C82          C87   1.416       .  A
C82        C1789   1.490       .  S
C83          C84   1.408       .  A
C83          H88   1.079       .  S
C84          C85   1.404       .  A
C84        C2136   1.505       .  S
C85          C86   1.402       .  A
C85          H89   1.079       .  S
C86          C87   1.417       .  A
C86        C1813   1.489       .  S
C87          H90   1.083   1_455  S
O91         C102   1.295       .  A
O91        Eu127   2.480   1_545  S
O92         C103   1.291       .  A
O92        Eu126   2.458   1_545  S
O93         C104   1.289       .  A
O93         Eu99   2.441   1_655  S
O94         C105   1.289       .  A
O94         Eu99   2.441       .  S
O95         C105   1.288       .  A
O95        Eu129   2.438   1_545  S
O96         C104   1.292       .  A
O96        Eu128   2.457   1_545  S
O97         C103   1.297       .  A
O97         Eu99   2.488       .  S
O98         C102   1.298       .  A
O98         Eu99   2.495       .  S
Eu99        O109   2.361       .  S
Eu99        O101   2.343   1_455  S
Eu99        O100   2.348       .  S
Eu99        O107   2.362   1_455  S
O100       Eu129   2.350   1_545  S
O100       Eu126   2.346   1_545  S
O101       Eu127   2.344   1_645  S
O101       Eu128   2.349   1_545  S
C102       C2232   1.506       .  S
C103       C1872   1.492       .  S
C104       C1741   1.478       .  S
C105       C1765   1.468       .  S
H106        O107   0.967       .  S
O107       Eu128   2.363   1_545  S
O107       Eu126   2.368   1_645  S
H108        O109   0.967       .  S
O109       Eu127   2.360   1_545  S
O109       Eu129   2.361   1_545  S
O110        C133   1.294       .  A
O110       Eu126   2.474       .  S
O111        C134   1.292       .  A
O111       Eu127   2.460       .  S
O112        C135   1.303       .  A
O112       Eu128   2.524       .  S
O113        C136   1.297       .  A
O113       Eu129   2.493       .  S
O114        C137   1.296       .  A
O114       Eu129   2.488       .  S
O115        C138   1.302       .  A
O115       Eu128   2.520       .  S
O116        C139   1.288       .  A
O116       Eu130   2.444   1_655  S
O117        C140   1.291       .  A
O117       Eu130   2.452       .  S
O118        C139   1.289       .  A
O118       Eu128   2.441       .  S
O119        C140   1.288       .  A
O119       Eu129   2.432       .  S
O120        C135   1.290       .  A
O120       Eu126   2.447   1_655  S
O121        C138   1.290       .  A
O121       Eu127   2.444   1_655  S
O122        C137   1.289       .  A
O122       Eu127   2.447       .  S
O123        C136   1.293       .  A
O123       Eu126   2.466       .  S
O124        C133   1.295       .  A
O124       Eu130   2.479       .  S
O125        C134   1.296       .  A
O125       Eu130   2.488       .  S
Eu126       O144   2.341       .  S
Eu126       O132   2.353   1_455  S
Eu127       O131   2.357       .  S
Eu127       O142   2.363   1_455  S
Eu128       O142   2.365       .  S
Eu128       O132   2.358       .  S
Eu129       O131   2.362       .  S
Eu129       O144   2.357       .  S
Eu130       O131   2.364       .  S
Eu130       O142   2.360   1_455  S
Eu130       O144   2.354       .  S
Eu130       O132   2.355   1_455  S
C133       C1920   1.498       .  S
C134       C1824   1.491       .  S
C135       C1597   1.504       .  S
C136       C1621   1.499       .  S
C137       C1656   1.487       .  S
C138       C1680   1.497       .  S
C139       C1728   1.458       .  S
C140       C1693   1.470       .  S
H141        O142   0.966       .  S
H143        O144   0.964       .  S
C145        C146   1.420       .  A
C145        C150   1.396       .  A
C145       C1992   1.486       .  S
C146        C147   1.422       .  A
C146        H151   1.083       .  S
C147        C148   1.403       .  A
C147       C1584   1.490       .  S
C148        C149   1.397       .  A
C148        H152   1.084       .  S
C149        C150   1.392       .  A
C149       C1776   1.476       .  S
C150        H153   1.085       .  S
C154        C155   1.400       .  A
C154        C159   1.420       .  A
C154       C1560   1.486       .  S
C155        C156   1.396       .  A
C155        H160   1.085       .  S
C156        C157   1.398       .  A
C156       C1752   1.479       .  S
C157        C158   1.405       .  A
C157        H161   1.084       .  S
C158        C159   1.420       .  A
C158       C1968   1.498       .  S
C159        H162   1.083       .  S
C163        C164   1.404       .  A
C163        C168   1.426       .  A
C163       C1525   1.494       .  S
C164        C165   1.395       .  A
C164        H169   1.085       .  S
C165        C166   1.391       .  A
C165       C1717   1.470       .  S
C166        C167   1.398       .  A
C166        H170   1.085       .  S
C167        C168   1.424       .  A
C167       C2016   1.496       .  S
C168        H171   1.083       .  S
C172        C173   1.401       .  A
C172        C177   1.416       .  A
C172       C1933   1.489       .  S
C173        C174   1.400       .  A
C173        H178   1.083       .  S
C174        C175   1.400       .  A
C174       C1704   1.485       .  S
C175        C176   1.401       .  A
C175        H179   1.084       .  S
C176        C177   1.417       .  A
C176       C1512   1.487       .  S
C177        H180   1.083       .  S
C181        C182   1.396       .  A
C181        C186   1.422       .  A
C181       C1453   1.491       .  S
C182        C183   1.394       .  A
C182        H187   1.085   1_565  S
C183        C184   1.396       .  A
C183       C1477   1.474   1_565  S
C184        C185   1.404       .  A
C184        H188   1.085       .  S
C185        C186   1.424       .  A
C185       C1669   1.490       .  S
C186        H189   1.083       .  S
O190        C201   1.292       .  A
O190       Eu226   2.461       .  S
O191        C202   1.290       .  A
O191       Eu225   2.450       .  S
O192        C203   1.289       .  A
O192       Eu198   2.438   1_545  S
O193        C204   1.292       .  A
O193       Eu198   2.463       .  S
O194        C204   1.289       .  A
O194       Eu228   2.439       .  S
O195        C203   1.292       .  A
O195       Eu227   2.458   1_545  S
O196        C202   1.298       .  A
O196       Eu198   2.505       .  S
O197        C201   1.297       .  A
O197       Eu198   2.492   1_545  S
Eu198       O208   2.371   1_565  S
Eu198       O200   2.350   1_565  S
Eu198       O199   2.350       .  S
Eu198       O206   2.366       .  S
O199       Eu228   2.358       .  S
O199       Eu225   2.347       .  S
O200       Eu226   2.338       .  S
O200       Eu227   2.349   1_545  S
C201       C1573   1.499       .  S
C202       C1501   1.495       .  S
C203       C1381   1.477       .  S
C204       C1429   1.474       .  S
H205        O206   0.967       .  S
O206       Eu227   2.374       .  S
O206       Eu225   2.370       .  S
H207        O208   0.968       .  S
O208       Eu226   2.360       .  S
O208       Eu228   2.361   1_545  S
O209        C232   1.291       .  A
O209       Eu225   2.457       .  S
O210        C233   1.290       .  A
O210       Eu226   2.449       .  S
O211        C234   1.302       .  A
O211       Eu227   2.522       .  S
O212        C235   1.294       .  A
O212       Eu228   2.472       .  S
O213        C236   1.295       .  A
O213       Eu228   2.487   1_545  S
O214        C237   1.302       .  A
O214       Eu227   2.526   1_545  S
O215        C238   1.290       .  A
O215       Eu229   2.440       .  S
O216        C239   1.290       .  A
O216       Eu229   2.445       .  S
O217        C238   1.292       .  A
O217       Eu227   2.460   1_545  S
O218        C239   1.292       .  A
O218       Eu228   2.457   1_545  S
O219        C234   1.292       .  A
O219       Eu225   2.460       .  S
O220        C237   1.289       .  A
O220       Eu226   2.444       .  S
O221        C236   1.291       .  A
O221       Eu226   2.460       .  S
O222        C235   1.295       .  A
O222       Eu225   2.479       .  S
O223        C232   1.299       .  A
O223       Eu229   2.503   1_565  S
O224        C233   1.296       .  A
O224       Eu229   2.490       .  S
Eu225       O243   2.356       .  S
Eu225       O231   2.355       .  S
Eu226       O230   2.338       .  S
Eu226       O241   2.362       .  S
Eu227       O241   2.365   1_565  S
Eu227       O231   2.369       .  S
Eu228       O230   2.344   1_565  S
Eu228       O243   2.361       .  S
Eu229       O230   2.354       .  S
Eu229       O241   2.362       .  S
Eu229       O243   2.351   1_545  S
Eu229       O231   2.357   1_545  S
C232       C1536   1.501       .  S
C233       C1549   1.490       .  S
C234       C1320   1.506       .  S
C235       C1368   1.496       .  S
C236       C1333   1.488       .  S
C237       C1285   1.505       .  S
C238       C1488   1.479       .  S
C239       C1405   1.480       .  S
H240        O241   0.965       .  S
H242        O243   0.967       .  S
C244        C245   1.419       .  A
C244        C249   1.407       .  A
C244       C1272   1.493       .  S
C245        C246   1.416       .  A
C245        H250   1.083       .  S
C246        C247   1.398       .  A
C246       C1632   1.487       .  S
C247        C248   1.398       .  A
C247        H251   1.084       .  S
C248        C249   1.405       .  A
C248       C1440   1.489       .  S
C249        H252   1.084       .  S
C253        C254   1.420       .  A
C253        C258   1.402       .  A
C253       C1248   1.491       .  S
C254        C255   1.420       .  A
C254        H259   1.083       .  S
C255        C256   1.402       .  A
C255       C1608   1.489       .  S
C256        C257   1.395       .  A
C256        H260   1.085       .  S
C257        C258   1.397       .  A
C257       C1416   1.477       .  S
C258        H261   1.085       .  S
C262        C263   1.399   1_565  A
C262        C267   1.414       .  A
C262       C1213   1.483       .  S
C263        C264   1.400       .  A
C263        H268   1.083       .  S
C264        C265   1.403       .  A
C264       C1392   1.494       .  S
C265        C266   1.405   1_545  A
C265        H269   1.081       .  S
C266        C267   1.415       .  A
C266       C1645   1.491       .  S
C267        H270   1.083       .  S
O271        C282   1.288       .  A
O271       Eu307   2.437       .  S
O272        C283   1.290       .  A
O272       Eu306   2.448       .  S
O273        C284   1.289       .  A
O273       Eu279   2.448   1_545  S
O274        C285   1.290       .  A
O274       Eu279   2.448       .  S
O275        C285   1.290       .  A
O275       Eu309   2.446       .  S
O276        C284   1.287       .  A
O276       Eu308   2.424       .  S
O277        C283   1.301       .  A
O277       Eu279   2.514       .  S
O278        C282   1.304       .  A
O278       Eu279   2.537       .  S
Eu279       O289   2.375       .  S
Eu279       O281   2.351   1_565  S
Eu279       O280   2.357       .  S
Eu279       O287   2.375   1_565  S
O280       Eu309   2.348       .  S
O280       Eu306   2.348       .  S
O281       Eu307   2.345   1_545  S
O281       Eu308   2.351       .  S
C282       C1464   1.507       .  S
C283       C1224   1.501       .  S
C284       C1200   1.470       .  S
C285       C1176   1.475       .  S
H286        O287   0.966       .  S
O287       Eu308   2.357       .  S
O287       Eu306   2.366   1_545  S
H288        O289   0.966       .  S
O289       Eu307   2.374       .  S
O289       Eu309   2.374       .  S
O290        C313   1.292       .  A
O290       Eu306   2.462   1_556  S
O291        C314   1.291       .  A
O291       Eu307   2.460   1_556  S
O292        C315   1.298       .  A
O292       Eu308   2.499       .  S
O293        C316   1.298       .  A
O293       Eu309   2.497       .  S
O294        C317   1.297       .  A
O294       Eu309   2.489       .  S
O295        C318   1.297       .  A
O295       Eu308   2.491       .  S
O296        C319   1.290       .  A
O296       Eu310   2.448   1_545  S
O297        C320   1.286       .  A
O297       Eu310   2.419       .  S
O298        C319   1.289       .  A
O298       Eu308   2.443   1_556  S
O299        C320   1.293       .  A
O299       Eu309   2.467   1_556  S
O300        C315   1.293       .  A
O300       Eu306   2.473   1_545  S
O301        C318   1.293       .  A
O301       Eu307   2.469   1_545  S
O302        C317   1.291       .  A
O302       Eu307   2.459       .  S
O303        C316   1.294       .  A
O303       Eu306   2.475       .  S
O304        C313   1.298       .  A
O304       Eu310   2.501       .  S
O305        C314   1.298       .  A
O305       Eu310   2.496       .  S
Eu306       O324   2.350   1_554  S
Eu306       O312   2.352   1_564  S
Eu307       O311   2.346   1_554  S
Eu307       O322   2.357   1_564  S
Eu308       O322   2.359   1_554  S
Eu308       O312   2.352   1_554  S
Eu309       O311   2.353   1_554  S
Eu309       O324   2.357   1_554  S
Eu310       O311   2.356       .  S
Eu310       O322   2.352   1_565  S
Eu310       O324   2.357       .  S
Eu310       O312   2.356   1_565  S
C313       C1261   1.495       .  S
C314       C1237   1.499       .  S
C315       C1093   1.502       .  S
C316       C1045   1.504       .  S
C317       C1080   1.496       .  S
C318       C1032   1.499       .  S
C319       C1128   1.476       .  S
C320       C1141   1.475       .  S
H321        O322   0.966       .  S
H323        O324   0.966       .  S
C325        C326   1.397       .  A
C325        C330   1.418       .  A
C325       C1296   1.488       .  S
C326        C327   1.397       .  A
C326        H331   1.084       .  S
C327        C328   1.399       .  A
C327       C1189   1.480       .  S
C328        C329   1.404       .  A
C328        H332   1.084       .  S
C329        C330   1.420       .  A
C329        C997   1.490       .  S
C330        H333   1.083       .  S
C334        C335   1.416       .  A
C334        C339   1.403       .  A
C334        C973   1.491       .  S
C335        C336   1.414       .  A
C335        H340   1.083       .  S
C336        C337   1.401       .  A
C336       C1309   1.488       .  S
C337        C338   1.406       .  A
C337        H341   1.080       .  S
C338        C339   1.403       .  A
C338       C1165   1.502       .  S
C339        H342   1.081       .  S
C343        C344   1.422       .  A
C343        C348   1.396       .  A
C343        C960   1.488       .  S
C344        C345   1.425       .  A
C344        H349   1.083       .  S
C345        C346   1.407       .  A
C345       C1357   1.500       .  S
C346        C347   1.400       .  A
C346        H350   1.084       .  S
C347        C348   1.391       .  A
C347       C1152   1.477       .  S
C348        H351   1.085       .  S
C352        C353   1.398       .  A
C352        C357   1.418       .  A
C352       C1344   1.482       .  S
C353        C354   1.392       .  A
C353        H358   1.085       .  S
C354        C355   1.398       .  A
C354       C1117   1.474       .  S
C355        C356   1.403       .  A
C355        H359   1.085       .  S
C356        C357   1.419       .  A
C356        C925   1.486       .  S
C357        H360   1.083       .  S
O361        C372   1.291       .  A
O361       Eu397   2.454       .  S
O362        C373   1.290       .  A
O362       Eu396   2.446       .  S
O363        C374   1.292       .  A
O363       Eu369   2.461       .  S
O364        C375   1.289       .  A
O364       Eu369   2.441   1_655  S
O365        C375   1.290       .  A
O365       Eu399   2.441       .  S
O366        C374   1.289       .  A
O366       Eu398   2.439       .  S
O367        C373   1.300       .  A
O367       Eu369   2.511       .  S
O368        C372   1.299       .  A
O368       Eu369   2.504       .  S
Eu369       O379   2.362   1_455  S
Eu369       O371   2.346       .  S
Eu369       O370   2.368   1_455  S
Eu369       O377   2.369       .  S
O370       Eu399   2.359       .  S
O370       Eu396   2.355   1_655  S
O371       Eu397   2.344       .  S
O371       Eu398   2.346       .  S
C372       C2208   1.497       .  S
C373       C1800   1.502       .  S
C374        C888   1.481       .  S
C375        C901   1.470       .  S
H376        O377   0.967       .  S
O377       Eu398   2.370       .  S
O377       Eu396   2.373       .  S
H378        O379   0.965       .  S
O379       Eu397   2.349   1_655  S
O379       Eu399   2.362       .  S
O380        C403   1.293       .  A
O380       Eu396   2.473   1_556  S
O381        C404   1.291       .  A
O381       Eu397   2.458   1_556  S
O382        C405   1.300       .  A
O382       Eu398   2.514       .  S
O383        C406   1.298       .  A
O383       Eu399   2.507       .  S
O384        C407   1.297       .  A
O384       Eu399   2.495       .  S
O385        C408   1.300       .  A
O385       Eu398   2.509       .  S
O386        C409   1.288       .  A
O386       Eu400   2.428       .  S
O387        C410   1.292       .  A
O387       Eu400   2.460   1_655  S
O388        C409   1.290       .  A
O388       Eu398   2.448   1_556  S
O389        C410   1.289       .  A
O389       Eu399   2.439   1_556  S
O390        C405   1.289       .  A
O390       Eu396   2.441       .  S
O391        C408   1.292       .  A
O391       Eu397   2.465       .  S
O392        C407   1.291       .  A
O392       Eu397   2.457   1_655  S
O393        C406   1.291       .  A
O393       Eu396   2.457   1_655  S
O394        C403   1.297       .  A
O394       Eu400   2.495       .  S
O395        C404   1.294       .  A
O395       Eu400   2.474       .  S
Eu396       O414   2.350   1_454  S
Eu396       O402   2.339   1_554  S
Eu397       O401   2.350   1_454  S
Eu397       O412   2.353   1_554  S
Eu398       O412   2.371   1_554  S
Eu398       O402   2.350   1_554  S
Eu399       O401   2.359   1_554  S
Eu399       O414   2.360   1_554  S
Eu400       O401   2.351   1_455  S
Eu400       O412   2.367       .  S
Eu400       O414   2.353   1_455  S
Eu400       O402   2.345       .  S
C403       C1896   1.499       .  S
C404       C1837   1.492       .  S
C405        C781   1.494   1_554  S
C406        C744   1.495       .  S
C407        C757   1.493       .  S
C408        C805   1.505       .  S
C409        C853   1.463       .  S
C410        C829   1.478       .  S
H411        O412   0.967       .  S
H413        O414   0.965       .  S
C415        C416   1.420       .  A
C415        C420   1.395       .  A
C415       C2053   1.488       .  S
C416        C417   1.424       .  A
C416        H421   1.082       .  S
C417        C418   1.403       .  A
C417        C720   1.491       .  S
C418        C419   1.397       .  A
C418        H422   1.084       .  S
C419        C420   1.393       .  A
C419        C912   1.476       .  S
C420        H423   1.085       .  S
C424        C425   1.417       .  A
C424        C429   1.404       .  A
C424        C685   1.491       .  S
C425        C426   1.415       .  A
C425        H430   1.083       .  S
C426        C427   1.399       .  A
C426       C2040   1.485       .  S
C427        C428   1.400       .  A
C427        H431   1.083       .  S
C428        C429   1.404       .  A
C428        C877   1.492       .  S
C429        H432   1.082       .  S
C433        C434   1.398       .  A
C433        C438   1.419       .  A
C433        C672   1.485       .  S
C434        C435   1.396       .  A
C434        H439   1.084       .  S
C435        C436   1.397       .  A
C435        C864   1.479       .  S
C436        C437   1.400       .  A
C436        H440   1.084       .  S
C437        C438   1.420       .  A
C437       C2088   1.486       .  S
C438        H441   1.083       .  S
C442        C443   1.422       .  A
C442        C447   1.406       .  A
C442       C2101   1.499       .  S
C443        C444   1.421       .  A
C443        H448   1.083       .  S
C444        C445   1.400       .  A
C444        C637   1.492       .  S
C445        C446   1.396       .  A
C445        H449   1.084       .  S
C446        C447   1.398       .  A
C446        C840   1.483       .  S
C447        H450   1.083       .  S
C451        C452   1.424       .  A
C451        C456   1.397       .  A
C451        C816   1.492       .  S
C452        C453   1.426       .  A
C452        H457   1.082       .  S
C453        C454   1.403       .  A
C453       C1104   1.498       .  S
C454        C455   1.393       .  A
C454        H458   1.084       .  S
C455        C456   1.392       .  A
C455        C613   1.472       .  S
C456        H459   1.085       .  S
O460        C471   1.292       .  A
O460       Eu496   2.460       .  S
O461        C472   1.288       .  A
O461       Eu495   2.438       .  S
O462        C473   1.287       .  A
O462       Eu468   2.427       .  S
O463        C474   1.290       .  A
O463       Eu468   2.444       .  S
O464        C474   1.286       .  A
O464       Eu498   2.422       .  S
O465        C473   1.291       .  A
O465       Eu497   2.455       .  S
O466        C472   1.298       .  A
O466       Eu468   2.503       .  S
O467        C471   1.298       .  A
O467       Eu468   2.498   1_554  S
Eu468       O478   2.353   1_556  S
Eu468       O470   2.359   1_556  S
Eu468       O469   2.353       .  S
Eu468       O476   2.355       .  S
O469       Eu498   2.353       .  S
O469       Eu495   2.345       .  S
O470       Eu496   2.346       .  S
O470       Eu497   2.355   1_554  S
C471       C1008   1.499       .  S
C472        C936   1.494       .  S
C473        C624   1.466       .  S
C474        C552   1.465       .  S
H475        O476   0.967       .  S
O476       Eu497   2.364       .  S
O476       Eu495   2.359       .  S
H477        O478   0.965       .  S
O478       Eu496   2.344       .  S
O478       Eu498   2.350   1_554  S
O479        C502   1.291       .  A
O479       Eu495   2.457       .  S
O480        C503   1.289       .  A
O480       Eu496   2.440       .  S
O481        C504   1.298       .  A
O481       Eu497   2.499       .  S
O482        C505   1.295       .  A
O482       Eu498   2.479       .  S
O483        C506   1.295       .  A
O483       Eu498   2.484   1_554  S
O484        C507   1.301       .  A
O484       Eu497   2.512   1_554  S
O485        C508   1.290       .  A
O485       Eu499   2.445       .  S
O486        C509   1.291       .  A
O486       Eu499   2.458       .  S
O487        C508   1.292       .  A
O487       Eu497   2.455       .  S
O488        C509   1.287       .  A
O488       Eu498   2.427       .  S
O489        C504   1.291       .  A
O489       Eu495   2.454       .  S
O490        C507   1.289       .  A
O490       Eu496   2.447       .  S
O491        C506   1.293       .  A
O491       Eu496   2.469       .  S
O492        C505   1.292       .  A
O492       Eu495   2.463       .  S
O493        C502   1.298       .  A
O493       Eu499   2.501       .  S
O494        C503   1.298       .  A
O494       Eu499   2.500   1_554  S
Eu495       O513   2.351       .  S
Eu495       O501   2.339       .  S
Eu496       O500   2.351       .  S
Eu496       O511   2.369       .  S
Eu497       O511   2.364   1_556  S
Eu497       O501   2.354       .  S
Eu498       O500   2.351   1_556  S
Eu498       O513   2.352       .  S
Eu499       O500   2.361   1_556  S
Eu499       O511   2.374   1_556  S
Eu499       O513   2.358       .  S
Eu499       O501   2.351       .  S
C502        C949   1.499       .  S
C503        C984   1.488       .  S
C504        C661   1.494       .  S
C505        C648   1.496       .  S
C506        C709   1.495       .  S
C507        C696   1.500       .  S
C508        C565   1.479       .  S
C509        C589   1.466       .  S
H510        O511   0.967       .  S
H512        O513   0.966       .  S
C514        C515   1.400       .  A
C514        C519   1.415   1_556  A
C514       C1069   1.481   1_556  S
C515        C516   1.399       .  A
C515        H520   1.083       .  S
C516        C517   1.401       .  A
C516        C600   1.487       .  S
C517        C518   1.401       .  A
C517        H521   1.084       .  S
C518        C519   1.415   1_556  A
C518        C733   1.484   1_556  S
C519        H522   1.083       .  S
C523        C524   1.402       .  A
C523        C528   1.422       .  A
C523       C1056   1.492   1_556  S
C524        C525   1.400       .  A
C524        H529   1.083       .  S
C525        C526   1.398       .  A
C525        C576   1.486       .  S
C526        C527   1.401       .  A
C526        H530   1.083       .  S
C527        C528   1.421       .  A
C527        C792   1.496       .  S
C528        H531   1.083   1_556  S
C532        C533   1.401       .  A
C532        C537   1.418       .  A
C532        C768   1.486       .  S
C533        C534   1.399       .  A
C533        H538   1.084       .  S
C534        C535   1.396       .  A
C534        C541   1.478       .  S
C535        C536   1.400       .  A
C535        H539   1.084       .  S
C536        C537   1.418       .  A
C536       C1021   1.487       .  S
C537        H540   1.083       .  S
C541        C542   1.406       .  A
C541        C546   1.405   1_556  A
C542        C543   1.392       .  A
C542        H555   1.083       .  S
C543        C544   1.398       .  A
C543        H556   1.084       .  S
C544        C545   1.405   1_556  A
C544        C547   1.469       .  S
C545        C546   1.394       .  A
C545        H557   1.083       .  S
C546        H558   1.083       .  S
C547        C548   1.341       .  D
C547        H559   1.085       .  S
C548        C549   1.474       .  S
C548        H560   1.087       .  S
C549        C550   1.400       .  A
C549        C554   1.407       .  A
C550        C551   1.392       .  A
C550        H561   1.084       .  S
C551        C552   1.405       .  A
C551        H562   1.083       .  S
C552        C553   1.401       .  A
C553        C554   1.390       .  A
C553        H563   1.083       .  S
C554        H564   1.081   1_556  S
C565        C566   1.404       .  A
C565        C570   1.408       .  A
C566        C567   1.393       .  A
C566        H579   1.083       .  S
C567        C568   1.402       .  A
C567        H580   1.084       .  S
C568        C569   1.407       .  A
C568        C571   1.481       .  S
C569        C570   1.397       .  A
C569        H581   1.081       .  S
C570        H582   1.083       .  S
C571        C572   1.344       .  D
C571        H583   1.087       .  S
C572        C573   1.479       .  S
C572        H584   1.084       .  S
C573        C574   1.402       .  A
C573        C578   1.405       .  A
C574        C575   1.399       .  A
C574        H585   1.083       .  S
C575        C576   1.408       .  A
C575        H586   1.082       .  S
C576        C577   1.406       .  A
C577        C578   1.388       .  A
C577        H587   1.082       .  S
C578        H588   1.082       .  S
C589        C590   1.402       .  A
C589        C594   1.403       .  A
C590        C591   1.389       .  A
C590        H603   1.084   1_556  S
C591        C592   1.400       .  A
C591        H604   1.084   1_556  S
C592        C593   1.407       .  A
C592        C595   1.474       .  S
C593        C594   1.399       .  A
C593        H605   1.082       .  S
C594        H606   1.083       .  S
C595        C596   1.345       .  D
C595        H607   1.086       .  S
C596        C597   1.479       .  S
C596        H608   1.085       .  S
C597        C598   1.401       .  A
C597        C602   1.404       .  A
C598        C599   1.400       .  A
C598        H609   1.083       .  S
C599        C600   1.410       .  A
C599        H610   1.082       .  S
C600        C601   1.406       .  A
C601        C602   1.388       .  A
C601        H611   1.082       .  S
C602        H612   1.082       .  S
C613        C614   1.405       .  A
C613        C618   1.402       .  A
C614        C615   1.393       .  A
C614        H627   1.083       .  S
C615        C616   1.400       .  A
C615        H628   1.083       .  S
C616        C617   1.407       .  A
C616        C619   1.474       .  S
C617        C618   1.389       .  A
C617        H629   1.082       .  S
C618        H630   1.083       .  S
C619        C620   1.341   1_554  D
C619        H631   1.086       .  S
C620        C621   1.467       .  S
C620        H632   1.085       .  S
C621        C622   1.397       .  A
C621        C626   1.406       .  A
C622        C623   1.388       .  A
C622        H633   1.084       .  S
C623        C624   1.404       .  A
C623        H634   1.083       .  S
C624        C625   1.403       .  A
C625        C626   1.396       .  A
C625        H635   1.083   1_556  S
C626        H636   1.082   1_556  S
C637        C638   1.403       .  A
C637        C642   1.410       .  A
C638        C639   1.406       .  A
C638        H651   1.083       .  S
C639        C640   1.409       .  A
C639        H652   1.083       .  S
C640        C641   1.407       .  A
C640        C643   1.499       .  S
C641        C642   1.402       .  A
C641        H653   1.082       .  S
C642        H654   1.084       .  S
C643        C644   1.356       .  D
C643        H655   1.084       .  S
C644        C645   1.501       .  S
C644        H656   1.086       .  S
C645        C646   1.408       .  A
C645        C650   1.408       .  A
C646        C647   1.404       .  A
C646        H657   1.083       .  S
C647        C648   1.407       .  A
C647        H658   1.083       .  S
C648        C649   1.409       .  A
C649        C650   1.403       .  A
C649        H659   1.083       .  S
C650        H660   1.080       .  S
C661        C662   1.407       .  A
C661        C666   1.408       .  A
C662        C663   1.398       .  A
C662        H675   1.083       .  S
C663        C664   1.404       .  A
C663        H676   1.083       .  S
C664        C665   1.413       .  A
C664        C667   1.501       .  S
C665        C666   1.410       .  A
C665        H677   1.081       .  S
C666        H678   1.083       .  S
C667        C668   1.353       .  D
C667        H679   1.084       .  S
C668        C669   1.504       .  S
C668        H680   1.085       .  S
C669        C670   1.407       .  A
C669        C674   1.411       .  A
C670        C671   1.405       .  A
C670        H681   1.083       .  S
C671        C672   1.405       .  A
C671        H682   1.083       .  S
C672        C673   1.405       .  A
C673        C674   1.405       .  A
C673        H683   1.083       .  S
C674        H684   1.080       .  S
C685        C686   1.404       .  A
C685        C690   1.407       .  A
C686        C687   1.407       .  A
C686        H699   1.083       .  S
C687        C688   1.409       .  A
C687        H700   1.083       .  S
C688        C689   1.408       .  A
C688        C691   1.502       .  S
C689        C690   1.402       .  A
C689        H701   1.082       .  S
C690        H702   1.083       .  S
C691        C692   1.357       .  D
C691        H703   1.083       .  S
C692        C693   1.505       .  S
C692        H704   1.085       .  S
C693        C694   1.410       .  A
C693        C698   1.409       .  A
C694        C695   1.405       .  A
C694        H705   1.083       .  S
C695        C696   1.404       .  A
C695        H706   1.083       .  S
C696        C697   1.413       .  A
C697        C698   1.405       .  A
C697        H707   1.083       .  S
C698        H708   1.080       .  S
C709        C710   1.406       .  A
C709        C714   1.410       .  A
C710        C711   1.400       .  A
C710        H723   1.083       .  S
C711        C712   1.404       .  A
C711        H724   1.083       .  S
C712        C713   1.411       .  A
C712        C715   1.500       .  S
C713        C714   1.411       .  A
C713        H725   1.082       .  S
C714        H726   1.083       .  S
C715        C716   1.353       .  D
C715        H727   1.084       .  S
C716        C717   1.506       .  S
C716        H728   1.086       .  S
C717        C718   1.409       .  A
C717        C722   1.411       .  A
C718        C719   1.407       .  A
C718        H729   1.083       .  S
C719        C720   1.403       .  A
C719        H730   1.083       .  S
C720        C721   1.407       .  A
C721        C722   1.405       .  A
C721        H731   1.083       .  S
C722        H732   1.081       .  S
C733        C734   1.405       .  A
C733        C738   1.402   1_554  A
C734        C735   1.404       .  A
C734        H747   1.083       .  S
C735        C736   1.409       .  A
C735        H748   1.083       .  S
C736        C737   1.414   1_554  A
C736        C739   1.508       .  S
C737        C738   1.404       .  A
C737        H749   1.078       .  S
C738        H750   1.083       .  S
C739        C740   1.354   1_554  D
C739        H751   1.085       .  S
C740        C741   1.500   1_556  S
C740        H752   1.082       .  S
C741        C742   1.404   1_554  A
C741        C746   1.413       .  A
C742        C743   1.398       .  A
C742        H753   1.084       .  S
C743        C744   1.407   1_556  A
C743        H754   1.083       .  S
C744        C745   1.408       .  A
C745        C746   1.413       .  A
C745        H755   1.083       .  S
C746        H756   1.082       .  S
C757        C758   1.408       .  A
C757        C762   1.408   1_554  A
C758        C759   1.399       .  A
C758        H771   1.083       .  S
C759        C760   1.402       .  A
C759        H772   1.083       .  S
C760        C761   1.411   1_554  A
C760        C763   1.497       .  S
C761        C762   1.410       .  A
C761        H773   1.082       .  S
C762        H774   1.083       .  S
C763        C764   1.349   1_554  D
C763        H775   1.086       .  S
C764        C765   1.499       .  S
C764        H776   1.086       .  S
C765        C766   1.405       .  A
C765        C770   1.411   1_556  A
C766        C767   1.401       .  A
C766        H777   1.083       .  S
C767        C768   1.403       .  A
C767        H778   1.083       .  S
C768        C769   1.406   1_556  A
C769        C770   1.408       .  A
C769        H779   1.083       .  S
C770        H780   1.082       .  S
C781        C782   1.408       .  A
C781        C786   1.408   1_556  A
C782        C783   1.398       .  A
C782        H795   1.084       .  S
C783        C784   1.403       .  A
C783        H796   1.084       .  S
C784        C785   1.412   1_556  A
C784        C787   1.498       .  S
C785        C786   1.413       .  A
C785        H797   1.082       .  S
C786        H798   1.083       .  S
C787        C788   1.354   1_556  D
C787        H799   1.083       .  S
C788        C789   1.508       .  S
C788        H800   1.086       .  S
C789        C790   1.410       .  A
C789        C794   1.410   1_554  A
C790        C791   1.409       .  A
C790        H801   1.083       .  S
C791        C792   1.405   1_554  A
C791        H802   1.083       .  S
C792        C793   1.409       .  A
C793        C794   1.402       .  A
C793        H803   1.084       .  S
C794        H804   1.080       .  S
C805        C806   1.407   1_554  A
C805        C810   1.413       .  A
C806        C807   1.408       .  A
C806        H819   1.083       .  S
C807        C808   1.410   1_556  A
C807        H820   1.083       .  S
C808        C809   1.408       .  A
C808        C811   1.506       .  S
C809        C810   1.407       .  A
C809        H821   1.081       .  S
C810        H822   1.083       .  S
C811        C812   1.358       .  D
C811        H823   1.086   1_554  S
C812        C813   1.504       .  S
C812        H824   1.084       .  S
C813        C814   1.410       .  A
C813        C818   1.407   1_554  A
C814        C815   1.409       .  A
C814        H825   1.083       .  S
C815        C816   1.405       .  A
C815        H826   1.083       .  S
C816        C817   1.410   1_554  A
C817        C818   1.403       .  A
C817        H827   1.083       .  S
C818        H828   1.082       .  S
C829        C830   1.407       .  A
C829        C834   1.405       .  A
C830        C831   1.393       .  A
C830        H843   1.083       .  S
C831        C832   1.400       .  A
C831        H844   1.084       .  S
C832        C833   1.407       .  A
C832        C835   1.478       .  S
C833        C834   1.396       .  A
C833        H845   1.082       .  S
C834        H846   1.083       .  S
C835        C836   1.344       .  D
C835        H847   1.085       .  S
C836        C837   1.480       .  S
C836        H848   1.086       .  S
C837        C838   1.402       .  A
C837        C842   1.406       .  A
C838        C839   1.397       .  A
C838        H849   1.083       .  S
C839        C840   1.406       .  A
C839        H850   1.083       .  S
C840        C841   1.405       .  A
C841        C842   1.392       .  A
C841        H851   1.083       .  S
C842        H852   1.081       .  S
C853        C854   1.402       .  A
C853        C858   1.403       .  A
C854        C855   1.388       .  A
C854        H867   1.084       .  S
C855        C856   1.399       .  A
C855        H868   1.084       .  S
C856        C857   1.407       .  A
C856        C859   1.469       .  S
C857        C858   1.396       .  A
C857        H869   1.082       .  S
C858        H870   1.083       .  S
C859        C860   1.342       .  D
C859        H871   1.086       .  S
C860        C861   1.475       .  S
C860        H872   1.086       .  S
C861        C862   1.400       .  A
C861        C866   1.406       .  A
C862        C863   1.395       .  A
C862        H873   1.083       .  S
C863        C864   1.407       .  A
C863        H874   1.083       .  S
C864        C865   1.404       .  A
C865        C866   1.390       .  A
C865        H875   1.083       .  S
C866        H876   1.082       .  S
C877        C878   1.410       .  A
C877        C882   1.410       .  A
C878        C879   1.391       .  A
C878        H891   1.081       .  S
C879        C880   1.397       .  A
C879        H892   1.084       .  S
C880        C881   1.403       .  A
C880        C883   1.472       .  S
C881        C882   1.398       .  A
C881        H893   1.083       .  S
C882        H894   1.082       .  S
C883        C884   1.344       .  D
C883        H895   1.084       .  S
C884        C885   1.483       .  S
C884        H896   1.088       .  S
C885        C886   1.401       .  A
C885        C890   1.410       .  A
C886        C887   1.394       .  A
C886        H897   1.084       .  S
C887        C888   1.407       .  A
C887        H898   1.083       .  S
C888        C889   1.405       .  A
C889        C890   1.397       .  A
C889        H899   1.083       .  S
C890        H900   1.080       .  S
C901        C902   1.405       .  A
C901        C906   1.403       .  A
C902        C903   1.392       .  A
C902        H915   1.083       .  S
C903        C904   1.400       .  A
C903        H916   1.084       .  S
C904        C905   1.407       .  A
C904        C907   1.472       .  S
C905        C906   1.390       .  A
C905        H917   1.081       .  S
C906        H918   1.083       .  S
C907        C908   1.342       .  D
C907        H919   1.087       .  S
C908        C909   1.473       .  S
C908        H920   1.085       .  S
C909        C910   1.402       .  A
C909        C914   1.405       .  A
C910        C911   1.397       .  A
C910        H921   1.083       .  S
C911        C912   1.405       .  A
C911        H922   1.083       .  S
C912        C913   1.404       .  A
C913        C914   1.385       .  A
C913        H923   1.083       .  S
C914        H924   1.082       .  S
C925        C926   1.404       .  A
C925        C930   1.406       .  A
C926        C927   1.400       .  A
C926        H939   1.083       .  S
C927        C928   1.404       .  A
C927        H940   1.083       .  S
C928        C929   1.411       .  A
C928        C931   1.496       .  S
C929        C930   1.408       .  A
C929        H941   1.082       .  S
C930        H942   1.083       .  S
C931        C932   1.347       .  D
C931        H943   1.087       .  S
C932        C933   1.492       .  S
C932        H944   1.086       .  S
C933        C934   1.399       .  A
C933        C938   1.410       .  A
C934        C935   1.397       .  A
C934        H945   1.083       .  S
C935        C936   1.411       .  A
C935        H946   1.083       .  S
C936        C937   1.408       .  A
C937        C938   1.409       .  A
C937        H947   1.083       .  S
C938        H948   1.083       .  S
C949        C950   1.407       .  A
C949        C954   1.411       .  A
C950        C951   1.407       .  A
C950        H963   1.083       .  S
C951        C952   1.409       .  A
C951        H964   1.083       .  S
C952        C953   1.407       .  A
C952        C955   1.503       .  S
C953        C954   1.405       .  A
C953        H965   1.082       .  S
C954        H966   1.083       .  S
C955        C956   1.356       .  D
C955        H967   1.087       .  S
C956        C957   1.499       .  S
C956        H968   1.085       .  S
C957        C958   1.407       .  A
C957        C962   1.406       .  A
C958        C959   1.407       .  A
C958        H969   1.083       .  S
C959        C960   1.406       .  A
C959        H970   1.083       .  S
C960        C961   1.408       .  A
C961        C962   1.405       .  A
C961        H971   1.083       .  S
C962        H972   1.083       .  S
C973        C974   1.405       .  A
C973        C978   1.406       .  A
C974        C975   1.407       .  A
C974        H987   1.083       .  S
C975        C976   1.408       .  A
C975        H988   1.083       .  S
C976        C977   1.410       .  A
C976        C979   1.501       .  S
C977        C978   1.399       .  A
C977        H989   1.081       .  S
C978        H990   1.083       .  S
C979        C980   1.351       .  D
C979        H991   1.084       .  S
C980        C981   1.497       .  S
C980        H992   1.084       .  S
C981        C982   1.403       .  A
C981        C986   1.413       .  A
C982        C983   1.394       .  A
C982        H993   1.084       .  S
C983        C984   1.406       .  A
C983        H994   1.084       .  S
C984        C985   1.407       .  A
C985        C986   1.411       .  A
C985        H995   1.083       .  S
C986        H996   1.081       .  S
C997        C998   1.404       .  A
C997       C1002   1.407       .  A
C998        C999   1.406       .  A
C998       H1011   1.083       .  S
C999       C1000   1.407       .  A
C999       H1012   1.083       .  S
C1000      C1001   1.408       .  A
C1000      C1003   1.498       .  S
C1001      C1002   1.403       .  A
C1001      H1013   1.082       .  S
C1002      H1014   1.083       .  S
C1003      C1004   1.350       .  D
C1003      H1015   1.086       .  S
C1004      C1005   1.498       .  S
C1004      H1016   1.086       .  S
C1005      C1006   1.402       .  A
C1005      C1010   1.411       .  A
C1006      C1007   1.398       .  A
C1006      H1017   1.083       .  S
C1007      C1008   1.410       .  A
C1007      H1018   1.083       .  S
C1008      C1009   1.410       .  A
C1009      C1010   1.411       .  A
C1009      H1019   1.083       .  S
C1010      H1020   1.082       .  S
C1021      C1022   1.407       .  A
C1021      C1026   1.404   1_556  A
C1022      C1023   1.401       .  A
C1022      H1035   1.083       .  S
C1023      C1024   1.406   1_556  A
C1023      H1036   1.083       .  S
C1024      C1025   1.408       .  A
C1024      C1027   1.497       .  S
C1025      C1026   1.407       .  A
C1025      H1037   1.083       .  S
C1026      H1038   1.083       .  S
C1027      C1028   1.354   1_554  D
C1027      H1039   1.085       .  S
C1028      C1029   1.498       .  S
C1028      H1040   1.087       .  S
C1029      C1030   1.407       .  A
C1029      C1034   1.407   1_556  A
C1030      C1031   1.404       .  A
C1030      H1041   1.083       .  S
C1031      C1032   1.407   1_556  A
C1031      H1042   1.083       .  S
C1032      C1033   1.412       .  A
C1033      C1034   1.406       .  A
C1033      H1043   1.083       .  S
C1034      H1044   1.082       .  S
C1045      C1046   1.407       .  A
C1045      C1050   1.412       .  A
C1046      C1047   1.407       .  A
C1046      H1059   1.083       .  S
C1047      C1048   1.410       .  A
C1047      H1060   1.083       .  S
C1048      C1049   1.410       .  A
C1048      C1051   1.510       .  S
C1049      C1050   1.408       .  A
C1049      H1061   1.080       .  S
C1050      H1062   1.083       .  S
C1051      C1052   1.360       .  D
C1051      H1063   1.083       .  S
C1052      C1053   1.510       .  S
C1052      H1064   1.083       .  S
C1053      C1054   1.411   1_554  A
C1053      C1058   1.411       .  A
C1054      C1055   1.408       .  A
C1054      H1065   1.083       .  S
C1055      C1056   1.404   1_556  A
C1055      H1066   1.083       .  S
C1056      C1057   1.407       .  A
C1057      C1058   1.406       .  A
C1057      H1067   1.083       .  S
C1058      H1068   1.080       .  S
C1069      C1070   1.404   1_554  A
C1069      C1074   1.405       .  A
C1070      C1071   1.404       .  A
C1070      H1083   1.083       .  S
C1071      C1072   1.407   1_556  A
C1071      H1084   1.083       .  S
C1072      C1073   1.407       .  A
C1072      C1075   1.494       .  S
C1073      C1074   1.401       .  A
C1073      H1085   1.082       .  S
C1074      H1086   1.083       .  S
C1075      C1076   1.353       .  D
C1075      H1087   1.084   1_554  S
C1076      C1077   1.498       .  S
C1076      H1088   1.086       .  S
C1077      C1078   1.407   1_554  A
C1077      C1082   1.408       .  A
C1078      C1079   1.402       .  A
C1078      H1089   1.083       .  S
C1079      C1080   1.406   1_556  A
C1079      H1090   1.083       .  S
C1080      C1081   1.410       .  A
C1081      C1082   1.403       .  A
C1081      H1091   1.083       .  S
C1082      H1092   1.081       .  S
C1093      C1094   1.407       .  A
C1093      C1098   1.410       .  A
C1094      C1095   1.408       .  A
C1094      H1107   1.083       .  S
C1095      C1096   1.410       .  A
C1095      H1108   1.083       .  S
C1096      C1097   1.409       .  A
C1096      C1099   1.507       .  S
C1097      C1098   1.407       .  A
C1097      H1109   1.081       .  S
C1098      H1110   1.083   1_554  S
C1099      C1100   1.359       .  D
C1099      H1111   1.085       .  S
C1100      C1101   1.505       .  S
C1100      H1112   1.084   1_554  S
C1101      C1102   1.411   1_554  A
C1101      C1106   1.406       .  A
C1102      C1103   1.410       .  A
C1102      H1113   1.083       .  S
C1103      C1104   1.405   1_556  A
C1103      H1114   1.083       .  S
C1104      C1105   1.411       .  A
C1105      C1106   1.402       .  A
C1105      H1115   1.084       .  S
C1106      H1116   1.082       .  S
C1117      C1118   1.405       .  A
C1117      C1122   1.402       .  A
C1118      C1119   1.394       .  A
C1118      H1131   1.083       .  S
C1119      C1120   1.401       .  A
C1119      H1132   1.083       .  S
C1120      C1121   1.407       .  A
C1120      C1123   1.476       .  S
C1121      C1122   1.393       .  A
C1121      H1133   1.082       .  S
C1122      H1134   1.083       .  S
C1123      C1124   1.344       .  D
C1123      H1135   1.086       .  S
C1124      C1125   1.477       .  S
C1124      H1136   1.086       .  S
C1125      C1126   1.401       .  A
C1125      C1130   1.406       .  A
C1126      C1127   1.394       .  A
C1126      H1137   1.084       .  S
C1127      C1128   1.406       .  A
C1127      H1138   1.083       .  S
C1128      C1129   1.405       .  A
C1129      C1130   1.394       .  A
C1129      H1139   1.083       .  S
C1130      H1140   1.082       .  S
C1141      C1142   1.407       .  A
C1141      C1146   1.404       .  A
C1142      C1143   1.386       .  A
C1142      H1155   1.083       .  S
C1143      C1144   1.397       .  A
C1143      H1156   1.084       .  S
C1144      C1145   1.409       .  A
C1144      C1147   1.475       .  S
C1145      C1146   1.400       .  A
C1145      H1157   1.082       .  S
C1146      H1158   1.083       .  S
C1147      C1148   1.342       .  D
C1147      H1159   1.086       .  S
C1148      C1149   1.479       .  S
C1148      H1160   1.085       .  S
C1149      C1150   1.401       .  A
C1149      C1154   1.408       .  A
C1150      C1151   1.396       .  A
C1150      H1161   1.083       .  S
C1151      C1152   1.407       .  A
C1151      H1162   1.083       .  S
C1152      C1153   1.401       .  A
C1153      C1154   1.393       .  A
C1153      H1163   1.083       .  S
C1154      H1164   1.082       .  S
C1165      C1166   1.413       .  A
C1165      C1170   1.413       .  A
C1166      C1167   1.399       .  A
C1166      H1179   1.081       .  S
C1167      C1168   1.398       .  A
C1167      H1180   1.083       .  S
C1168      C1169   1.400       .  A
C1168      C1171   1.476       .  S
C1169      C1170   1.389       .  A
C1169      H1181   1.084       .  S
C1170      H1182   1.078       .  S
C1171      C1172   1.347       .  D
C1171      H1183   1.086       .  S
C1172      C1173   1.471       .  S
C1172      H1184   1.087       .  S
C1173      C1174   1.400       .  A
C1173      C1178   1.404       .  A
C1174      C1175   1.391       .  A
C1174      H1185   1.084       .  S
C1175      C1176   1.404       .  A
C1175      H1186   1.083       .  S
C1176      C1177   1.407       .  A
C1177      C1178   1.398       .  A
C1177      H1187   1.083       .  S
C1178      H1188   1.082       .  S
C1189      C1190   1.408       .  A
C1189      C1194   1.402       .  A
C1190      C1191   1.396       .  A
C1190      H1203   1.083       .  S
C1191      C1192   1.399       .  A
C1191      H1204   1.083       .  S
C1192      C1193   1.409       .  A
C1192      C1195   1.477       .  S
C1193      C1194   1.390       .  A
C1193      H1205   1.082       .  S
C1194      H1206   1.083       .  S
C1195      C1196   1.337       .  D
C1195      H1207   1.086       .  S
C1196      C1197   1.470       .  S
C1196      H1208   1.087       .  S
C1197      C1198   1.397       .  A
C1197      C1202   1.406       .  A
C1198      C1199   1.384       .  A
C1198      H1209   1.084       .  S
C1199      C1200   1.404       .  A
C1199      H1210   1.083       .  S
C1200      C1201   1.407       .  A
C1201      C1202   1.400       .  A
C1201      H1211   1.083       .  S
C1202      H1212   1.082       .  S
C1213      C1214   1.402       .  A
C1213      C1218   1.407       .  A
C1214      C1215   1.403       .  A
C1214      H1227   1.083   1_565  S
C1215      C1216   1.407       .  A
C1215      H1228   1.083   1_565  S
C1216      C1217   1.409       .  A
C1216      C1219   1.499       .  S
C1217      C1218   1.405       .  A
C1217      H1229   1.082       .  S
C1218      H1230   1.083       .  S
C1219      C1220   1.356       .  D
C1219      H1231   1.084       .  S
C1220      C1221   1.504       .  S
C1220      H1232   1.086       .  S
C1221      C1222   1.410       .  A
C1221      C1226   1.408       .  A
C1222      C1223   1.408       .  A
C1222      H1233   1.083       .  S
C1223      C1224   1.406       .  A
C1223      H1234   1.083       .  S
C1224      C1225   1.412       .  A
C1225      C1226   1.402       .  A
C1225      H1235   1.083       .  S
C1226      H1236   1.081       .  S
C1237      C1238   1.406       .  A
C1237      C1242   1.412       .  A
C1238      C1239   1.404       .  A
C1238      H1251   1.083       .  S
C1239      C1240   1.408       .  A
C1239      H1252   1.083       .  S
C1240      C1241   1.407       .  A
C1240      C1243   1.500       .  S
C1241      C1242   1.406       .  A
C1241      H1253   1.082       .  S
C1242      H1254   1.083       .  S
C1243      C1244   1.356       .  D
C1243      H1255   1.086       .  S
C1244      C1245   1.502       .  S
C1244      H1256   1.085       .  S
C1245      C1246   1.409       .  A
C1245      C1250   1.408       .  A
C1246      C1247   1.409       .  A
C1246      H1257   1.083   1_565  S
C1247      C1248   1.404       .  A
C1247      H1258   1.083   1_565  S
C1248      C1249   1.407       .  A
C1249      C1250   1.402       .  A
C1249      H1259   1.083       .  S
C1250      H1260   1.082       .  S
C1261      C1262   1.407       .  A
C1261      C1266   1.408       .  A
C1262      C1263   1.401       .  A
C1262      H1275   1.084       .  S
C1263      C1264   1.405       .  A
C1263      H1276   1.083       .  S
C1264      C1265   1.413       .  A
C1264      C1267   1.503       .  S
C1265      C1266   1.412       .  A
C1265      H1277   1.082   1_565  S
C1266      H1278   1.083   1_565  S
C1267      C1268   1.354       .  D
C1267      H1279   1.084       .  S
C1268      C1269   1.507       .  S
C1268      H1280   1.086   1_565  S
C1269      C1270   1.409   1_565  A
C1269      C1274   1.412       .  A
C1270      C1271   1.406   1_545  A
C1270      H1281   1.083       .  S
C1271      C1272   1.404       .  A
C1271      H1282   1.083   1_565  S
C1272      C1273   1.407       .  A
C1273      C1274   1.407       .  A
C1273      H1283   1.083       .  S
C1274      H1284   1.081       .  S
C1285      C1286   1.412       .  A
C1285      C1290   1.409       .  A
C1286      C1287   1.400       .  A
C1286      H1299   1.083       .  S
C1287      C1288   1.403       .  A
C1287      H1300   1.084       .  S
C1288      C1289   1.413       .  A
C1288      C1291   1.503       .  S
C1289      C1290   1.413       .  A
C1289      H1301   1.082       .  S
C1290      H1302   1.083       .  S
C1291      C1292   1.354       .  D
C1291      H1303   1.084       .  S
C1292      C1293   1.507       .  S
C1292      H1304   1.085       .  S
C1293      C1294   1.409       .  A
C1293      C1298   1.411       .  A
C1294      C1295   1.407       .  A
C1294      H1305   1.083       .  S
C1295      C1296   1.405       .  A
C1295      H1306   1.083       .  S
C1296      C1297   1.405       .  A
C1297      C1298   1.405       .  A
C1297      H1307   1.083       .  S
C1298      H1308   1.080       .  S
C1309      C1310   1.404       .  A
C1309      C1314   1.405       .  A
C1310      C1311   1.408       .  A
C1310      H1323   1.083       .  S
C1311      C1312   1.411       .  A
C1311      H1324   1.083       .  S
C1312      C1313   1.411       .  A
C1312      C1315   1.509       .  S
C1313      C1314   1.403       .  A
C1313      H1325   1.080       .  S
C1314      H1326   1.083       .  S
C1315      C1316   1.355       .  D
C1315      H1327   1.086       .  S
C1316      C1317   1.502       .  S
C1316      H1328   1.084       .  S
C1317      C1318   1.402       .  A
C1317      C1322   1.413       .  A
C1318      C1319   1.399       .  A
C1318      H1329   1.084       .  S
C1319      C1320   1.411       .  A
C1319      H1330   1.083       .  S
C1320      C1321   1.411       .  A
C1321      C1322   1.416       .  A
C1321      H1331   1.083       .  S
C1322      H1332   1.082       .  S
C1333      C1334   1.405       .  A
C1333      C1338   1.407       .  A
C1334      C1335   1.399       .  A
C1334      H1347   1.083       .  S
C1335      C1336   1.403       .  A
C1335      H1348   1.083       .  S
C1336      C1337   1.411       .  A
C1336      C1339   1.495       .  S
C1337      C1338   1.410       .  A
C1337      H1349   1.082       .  S
C1338      H1350   1.083       .  S
C1339      C1340   1.350       .  D
C1339      H1351   1.085       .  S
C1340      C1341   1.500       .  S
C1340      H1352   1.086       .  S
C1341      C1342   1.407       .  A
C1341      C1346   1.409       .  A
C1342      C1343   1.405       .  A
C1342      H1353   1.083       .  S
C1343      C1344   1.404       .  A
C1343      H1354   1.083       .  S
C1344      C1345   1.406       .  A
C1345      C1346   1.402       .  A
C1345      H1355   1.084       .  S
C1346      H1356   1.081       .  S
C1357      C1358   1.405       .  A
C1357      C1362   1.410       .  A
C1358      C1359   1.410       .  A
C1358      H1371   1.083       .  S
C1359      C1360   1.410       .  A
C1359      H1372   1.083       .  S
C1360      C1361   1.408       .  A
C1360      C1363   1.504       .  S
C1361      C1362   1.404       .  A
C1361      H1373   1.082       .  S
C1362      H1374   1.083       .  S
C1363      C1364   1.356       .  D
C1363      H1375   1.085       .  S
C1364      C1365   1.502       .  S
C1364      H1376   1.085       .  S
C1365      C1366   1.407       .  A
C1365      C1370   1.409       .  A
C1366      C1367   1.403       .  A
C1366      H1377   1.083       .  S
C1367      C1368   1.407       .  A
C1367      H1378   1.083       .  S
C1368      C1369   1.410       .  A
C1369      C1370   1.406       .  A
C1369      H1379   1.083       .  S
C1370      H1380   1.081       .  S
C1381      C1382   1.405       .  A
C1381      C1386   1.404       .  A
C1382      C1383   1.395       .  A
C1382      H1395   1.083       .  S
C1383      C1384   1.404       .  A
C1383      H1396   1.084       .  S
C1384      C1385   1.409       .  A
C1384      C1387   1.484       .  S
C1385      C1386   1.394       .  A
C1385      H1397   1.079       .  S
C1386      H1398   1.083       .  S
C1387      C1388   1.346       .  D
C1387      H1399   1.088       .  S
C1388      C1389   1.472       .  S
C1388      H1400   1.083       .  S
C1389      C1390   1.397       .  A
C1389      C1394   1.403       .  A
C1390      C1391   1.391       .  A
C1390      H1401   1.084       .  S
C1391      C1392   1.411       .  A
C1391      H1402   1.080       .  S
C1392      C1393   1.410       .  A
C1393      C1394   1.397       .  A
C1393      H1403   1.082       .  S
C1394      H1404   1.083       .  S
C1405      C1406   1.407       .  A
C1405      C1410   1.405       .  A
C1406      C1407   1.395       .  A
C1406      H1419   1.083       .  S
C1407      C1408   1.400       .  A
C1407      H1420   1.083       .  S
C1408      C1409   1.407       .  A
C1408      C1411   1.480       .  S
C1409      C1410   1.395       .  A
C1409      H1421   1.082       .  S
C1410      H1422   1.083       .  S
C1411      C1412   1.345   1_545  D
C1411      H1423   1.084       .  S
C1412      C1413   1.482       .  S
C1412      H1424   1.086       .  S
C1413      C1414   1.403       .  A
C1413      C1418   1.409   1_565  A
C1414      C1415   1.392       .  A
C1414      H1425   1.083       .  S
C1415      C1416   1.401       .  A
C1415      H1426   1.083       .  S
C1416      C1417   1.405   1_565  A
C1417      C1418   1.398       .  A
C1417      H1427   1.083       .  S
C1418      H1428   1.080       .  S
C1429      C1430   1.403       .  A
C1429      C1434   1.406       .  A
C1430      C1431   1.391       .  A
C1430      H1443   1.083   1_565  S
C1431      C1432   1.401       .  A
C1431      H1444   1.084       .  S
C1432      C1433   1.407       .  A
C1432      C1435   1.477       .  S
C1433      C1434   1.402       .  A
C1433      H1445   1.082       .  S
C1434      H1446   1.083       .  S
C1435      C1436   1.345       .  D
C1435      H1447   1.086       .  S
C1436      C1437   1.484       .  S
C1436      H1448   1.086       .  S
C1437      C1438   1.401       .  A
C1437      C1442   1.407       .  A
C1438      C1439   1.400       .  A
C1438      H1449   1.083       .  S
C1439      C1440   1.410       .  A
C1439      H1450   1.083       .  S
C1440      C1441   1.404       .  A
C1441      C1442   1.393       .  A
C1441      H1451   1.082       .  S
C1442      H1452   1.082       .  S
C1453      C1454   1.405       .  A
C1453      C1458   1.409   1_565  A
C1454      C1455   1.404       .  A
C1454      H1467   1.083       .  S
C1455      C1456   1.407       .  A
C1455      H1468   1.083       .  S
C1456      C1457   1.412   1_565  A
C1456      C1459   1.508       .  S
C1457      C1458   1.410       .  A
C1457      H1469   1.081       .  S
C1458      H1470   1.083       .  S
C1459      C1460   1.352       .  D
C1459      H1471   1.086       .  S
C1460      C1461   1.503       .  S
C1460      H1472   1.085   1_565  S
C1461      C1462   1.401       .  A
C1461      C1466   1.413       .  A
C1462      C1463   1.400       .  A
C1462      H1473   1.084   1_565  S
C1463      C1464   1.413       .  A
C1463      H1474   1.083   1_565  S
C1464      C1465   1.410       .  A
C1465      C1466   1.416       .  A
C1465      H1475   1.082       .  S
C1466      H1476   1.082       .  S
C1477      C1478   1.401       .  A
C1477      C1482   1.404   1_545  A
C1478      C1479   1.398       .  A
C1478      H1491   1.083       .  S
C1479      C1480   1.406       .  A
C1479      H1492   1.083       .  S
C1480      C1481   1.405   1_545  A
C1480      C1483   1.480       .  S
C1481      C1482   1.390       .  A
C1481      H1493   1.081       .  S
C1482      H1494   1.084       .  S
C1483      C1484   1.348       .  D
C1483      H1495   1.085       .  S
C1484      C1485   1.481       .  S
C1484      H1496   1.085   1_545  S
C1485      C1486   1.404       .  A
C1485      C1490   1.405       .  A
C1486      C1487   1.399       .  A
C1486      H1497   1.083       .  S
C1487      C1488   1.406       .  A
C1487      H1498   1.083       .  S
C1488      C1489   1.405       .  A
C1489      C1490   1.390       .  A
C1489      H1499   1.083       .  S
C1490      H1500   1.081       .  S
C1501      C1502   1.407       .  A
C1501      C1506   1.409       .  A
C1502      C1503   1.397       .  A
C1502      H1515   1.083       .  S
C1503      C1504   1.403       .  A
C1503      H1516   1.084       .  S
C1504      C1505   1.413       .  A
C1504      C1507   1.499       .  S
C1505      C1506   1.412       .  A
C1505      H1517   1.082       .  S
C1506      H1518   1.083       .  S
C1507      C1508   1.352       .  D
C1507      H1519   1.082       .  S
C1508      C1509   1.506       .  S
C1508      H1520   1.085       .  S
C1509      C1510   1.408       .  A
C1509      C1514   1.413       .  A
C1510      C1511   1.405       .  A
C1510      H1521   1.083       .  S
C1511      C1512   1.403       .  A
C1511      H1522   1.083       .  S
C1512      C1513   1.406       .  A
C1513      C1514   1.403       .  A
C1513      H1523   1.083       .  S
C1514      H1524   1.079       .  S
C1525      C1526   1.404       .  A
C1525      C1530   1.409       .  A
C1526      C1527   1.409       .  A
C1526      H1539   1.083       .  S
C1527      C1528   1.410       .  A
C1527      H1540   1.083       .  S
C1528      C1529   1.409       .  A
C1528      C1531   1.505       .  S
C1529      C1530   1.405       .  A
C1529      H1541   1.082       .  S
C1530      H1542   1.083       .  S
C1531      C1532   1.358       .  D
C1531      H1543   1.084       .  S
C1532      C1533   1.506       .  S
C1532      H1544   1.085       .  S
C1533      C1534   1.409       .  A
C1533      C1538   1.410       .  A
C1534      C1535   1.405       .  A
C1534      H1545   1.083       .  S
C1535      C1536   1.406       .  A
C1535      H1546   1.083       .  S
C1536      C1537   1.412       .  A
C1537      C1538   1.407       .  A
C1537      H1547   1.083       .  S
C1538      H1548   1.081       .  S
C1549      C1550   1.408       .  A
C1549      C1554   1.407       .  A
C1550      C1551   1.398       .  A
C1550      H1563   1.083       .  S
C1551      C1552   1.401       .  A
C1551      H1564   1.083       .  S
C1552      C1553   1.411       .  A
C1552      C1555   1.494       .  S
C1553      C1554   1.408       .  A
C1553      H1565   1.082       .  S
C1554      H1566   1.083       .  S
C1555      C1556   1.348       .  D
C1555      H1567   1.086       .  S
C1556      C1557   1.497       .  S
C1556      H1568   1.086       .  S
C1557      C1558   1.405       .  A
C1557      C1562   1.411       .  A
C1558      C1559   1.402       .  A
C1558      H1569   1.083       .  S
C1559      C1560   1.403       .  A
C1559      H1570   1.083       .  S
C1560      C1561   1.407       .  A
C1561      C1562   1.407       .  A
C1561      H1571   1.083       .  S
C1562      H1572   1.082       .  S
C1573      C1574   1.407       .  A
C1573      C1578   1.411       .  A
C1574      C1575   1.404       .  A
C1574      H1587   1.083       .  S
C1575      C1576   1.408       .  A
C1575      H1588   1.083       .  S
C1576      C1577   1.408       .  A
C1576      C1579   1.502       .  S
C1577      C1578   1.405       .  A
C1577      H1589   1.081       .  S
C1578      H1590   1.083       .  S
C1579      C1580   1.357       .  D
C1579      H1591   1.085       .  S
C1580      C1581   1.503       .  S
C1580      H1592   1.084       .  S
C1581      C1582   1.409       .  A
C1581      C1586   1.409       .  A
C1582      C1583   1.407       .  A
C1582      H1593   1.083       .  S
C1583      C1584   1.404       .  A
C1583      H1594   1.083       .  S
C1584      C1585   1.408       .  A
C1585      C1586   1.404       .  A
C1585      H1595   1.083       .  S
C1586      H1596   1.081       .  S
C1597      C1598   1.405       .  A
C1597      C1602   1.415       .  A
C1598      C1599   1.406       .  A
C1598      H1611   1.083       .  S
C1599      C1600   1.409       .  A
C1599      H1612   1.083       .  S
C1600      C1601   1.407       .  A
C1600      C1603   1.504       .  S
C1601      C1602   1.407       .  A
C1601      H1613   1.081       .  S
C1602      H1614   1.083       .  S
C1603      C1604   1.357       .  D
C1603      H1615   1.086       .  S
C1604      C1605   1.502       .  S
C1604      H1616   1.085   1_565  S
C1605      C1606   1.409   1_565  A
C1605      C1610   1.407       .  A
C1606      C1607   1.409       .  A
C1606      H1617   1.083       .  S
C1607      C1608   1.405   1_545  A
C1607      H1618   1.083       .  S
C1608      C1609   1.407       .  A
C1609      C1610   1.401       .  A
C1609      H1619   1.083       .  S
C1610      H1620   1.082       .  S
C1621      C1622   1.409       .  A
C1621      C1626   1.409       .  A
C1622      C1623   1.401       .  A
C1622      H1635   1.083       .  S
C1623      C1624   1.403       .  A
C1623      H1636   1.083       .  S
C1624      C1625   1.412       .  A
C1624      C1627   1.501       .  S
C1625      C1626   1.410       .  A
C1625      H1637   1.082       .  S
C1626      H1638   1.083       .  S
C1627      C1628   1.352       .  D
C1627      H1639   1.084       .  S
C1628      C1629   1.504       .  S
C1628      H1640   1.086   1_565  S
C1629      C1630   1.406   1_565  A
C1629      C1634   1.413       .  A
C1630      C1631   1.401       .  A
C1630      H1641   1.083       .  S
C1631      C1632   1.404   1_545  A
C1631      H1642   1.083       .  S
C1632      C1633   1.405       .  A
C1633      C1634   1.408       .  A
C1633      H1643   1.083       .  S
C1634      H1644   1.080       .  S
C1645      C1646   1.407       .  A
C1645      C1650   1.404       .  A
C1646      C1647   1.397       .  A
C1646      H1659   1.083       .  S
C1647      C1648   1.406       .  A
C1647      H1660   1.081       .  S
C1648      C1649   1.409       .  A
C1648      C1651   1.496       .  S
C1649      C1650   1.407       .  A
C1649      H1661   1.083       .  S
C1650      H1662   1.083       .  S
C1651      C1652   1.355       .  D
C1651      H1663   1.082       .  S
C1652      C1653   1.498       .  S
C1652      H1664   1.084       .  S
C1653      C1654   1.409       .  A
C1653      C1658   1.408       .  A
C1654      C1655   1.402       .  A
C1654      H1665   1.083       .  S
C1655      C1656   1.404       .  A
C1655      H1666   1.083       .  S
C1656      C1657   1.408       .  A
C1657      C1658   1.400       .  A
C1657      H1667   1.083       .  S
C1658      H1668   1.079       .  S
C1669      C1670   1.405       .  A
C1669      C1674   1.406   1_565  A
C1670      C1671   1.405       .  A
C1670      H1683   1.083       .  S
C1671      C1672   1.408       .  A
C1671      H1684   1.083       .  S
C1672      C1673   1.411   1_565  A
C1672      C1675   1.504       .  S
C1673      C1674   1.407       .  A
C1673      H1685   1.081       .  S
C1674      H1686   1.083       .  S
C1675      C1676   1.353       .  D
C1675      H1687   1.086       .  S
C1676      C1677   1.500       .  S
C1676      H1688   1.085   1_565  S
C1677      C1678   1.404       .  A
C1677      C1682   1.411       .  A
C1678      C1679   1.402       .  A
C1678      H1689   1.084   1_565  S
C1679      C1680   1.410       .  A
C1679      H1690   1.083   1_565  S
C1680      C1681   1.407       .  A
C1681      C1682   1.410       .  A
C1681      H1691   1.083       .  S
C1682      H1692   1.082       .  S
C1693      C1694   1.404       .  A
C1693      C1698   1.406       .  A
C1694      C1695   1.390       .  A
C1694      H1707   1.083       .  S
C1695      C1696   1.400       .  A
C1695      H1708   1.084       .  S
C1696      C1697   1.404       .  A
C1696      C1699   1.471       .  S
C1697      C1698   1.395       .  A
C1697      H1709   1.082       .  S
C1698      H1710   1.083       .  S
C1699      C1700   1.341       .  D
C1699      H1711   1.086       .  S
C1700      C1701   1.477       .  S
C1700      H1712   1.086       .  S
C1701      C1702   1.400       .  A
C1701      C1706   1.406       .  A
C1702      C1703   1.397       .  A
C1702      H1713   1.083       .  S
C1703      C1704   1.408       .  A
C1703      H1714   1.082       .  S
C1704      C1705   1.405       .  A
C1705      C1706   1.388       .  A
C1705      H1715   1.082       .  S
C1706      H1716   1.082       .  S
C1717      C1718   1.404       .  A
C1717      C1722   1.402       .  A
C1718      C1719   1.399       .  A
C1718      H1731   1.083       .  S
C1719      C1720   1.402       .  A
C1719      H1732   1.083       .  S
C1720      C1721   1.403       .  A
C1720      C1723   1.471       .  S
C1721      C1722   1.386       .  A
C1721      H1733   1.083       .  S
C1722      H1734   1.084       .  S
C1723      C1724   1.341       .  D
C1723      H1735   1.086       .  S
C1724      C1725   1.467       .  S
C1724      H1736   1.088       .  S
C1725      C1726   1.401       .  A
C1725      C1730   1.405       .  A
C1726      C1727   1.390       .  A
C1726      H1737   1.084       .  S
C1727      C1728   1.399       .  A
C1727      H1738   1.084       .  S
C1728      C1729   1.403       .  A
C1729      C1730   1.396       .  A
C1729      H1739   1.084       .  S
C1730      H1740   1.083       .  S
C1741      C1742   1.407       .  A
C1741      C1746   1.405       .  A
C1742      C1743   1.394       .  A
C1742      H1755   1.083       .  S
C1743      C1744   1.400       .  A
C1743      H1756   1.084       .  S
C1744      C1745   1.406       .  A
C1744      C1747   1.477       .  S
C1745      C1746   1.396       .  A
C1745      H1757   1.082       .  S
C1746      H1758   1.083       .  S
C1747      C1748   1.343       .  D
C1747      H1759   1.086       .  S
C1748      C1749   1.480       .  S
C1748      H1760   1.086       .  S
C1749      C1750   1.402       .  A
C1749      C1754   1.407       .  A
C1750      C1751   1.397       .  A
C1750      H1761   1.083       .  S
C1751      C1752   1.405       .  A
C1751      H1762   1.083       .  S
C1752      C1753   1.404       .  A
C1753      C1754   1.394       .  A
C1753      H1763   1.083       .  S
C1754      H1764   1.082       .  S
C1765      C1766   1.403       .  A
C1765      C1770   1.403       .  A
C1766      C1767   1.395       .  A
C1766      H1779   1.083       .  S
C1767      C1768   1.403       .  A
C1767      H1780   1.083       .  S
C1768      C1769   1.406       .  A
C1768      C1771   1.477       .  S
C1769      C1770   1.390       .  A
C1769      H1781   1.081       .  S
C1770      H1782   1.083       .  S
C1771      C1772   1.344       .  D
C1771      H1783   1.086       .  S
C1772      C1773   1.471       .  S
C1772      H1784   1.085       .  S
C1773      C1774   1.399       .  A
C1773      C1778   1.405       .  A
C1774      C1775   1.389       .  A
C1774      H1785   1.084       .  S
C1775      C1776   1.406       .  A
C1775      H1786   1.083       .  S
C1776      C1777   1.404       .  A
C1777      C1778   1.396       .  A
C1777      H1787   1.083       .  S
C1778      H1788   1.082       .  S
C1789      C1790   1.405   1_455  A
C1789      C1794   1.406       .  A
C1790      C1791   1.407       .  A
C1790      H1803   1.083       .  S
C1791      C1792   1.408   1_655  A
C1791      H1804   1.083       .  S
C1792      C1793   1.411       .  A
C1792      C1795   1.506   1_455  S
C1793      C1794   1.406       .  A
C1793      H1805   1.081       .  S
C1794      H1806   1.083       .  S
C1795      C1796   1.352   1_655  D
C1795      H1807   1.086       .  S
C1796      C1797   1.500       .  S
C1796      H1808   1.085       .  S
C1797      C1798   1.401       .  A
C1797      C1802   1.412       .  A
C1798      C1799   1.398       .  A
C1798      H1809   1.084       .  S
C1799      C1800   1.411       .  A
C1799      H1810   1.083       .  S
C1800      C1801   1.410       .  A
C1801      C1802   1.413       .  A
C1801      H1811   1.083       .  S
C1802      H1812   1.082       .  S
C1813      C1814   1.405   1_455  A
C1813      C1818   1.405       .  A
C1814      C1815   1.407       .  A
C1814      H1827   1.083       .  S
C1815      C1816   1.409   1_655  A
C1815      H1828   1.083       .  S
C1816      C1817   1.411       .  A
C1816      C1819   1.504       .  S
C1817      C1818   1.401       .  A
C1817      H1829   1.079       .  S
C1818      H1830   1.083       .  S
C1819      C1820   1.352       .  D
C1819      H1831   1.086   1_455  S
C1820      C1821   1.492       .  S
C1820      H1832   1.082       .  S
C1821      C1822   1.402       .  A
C1821      C1826   1.410       .  A
C1822      C1823   1.397       .  A
C1822      H1833   1.083       .  S
C1823      C1824   1.406       .  A
C1823      H1834   1.083       .  S
C1824      C1825   1.409       .  A
C1825      C1826   1.410       .  A
C1825      H1835   1.083   1_455  S
C1826      H1836   1.083   1_455  S
C1837      C1838   1.407       .  A
C1837      C1842   1.409       .  A
C1838      C1839   1.402       .  A
C1838      H1851   1.083       .  S
C1839      C1840   1.407       .  A
C1839      H1852   1.083   1_455  S
C1840      C1841   1.406       .  A
C1840      C1843   1.494   1_455  S
C1841      C1842   1.401       .  A
C1841      H1853   1.081       .  S
C1842      H1854   1.083       .  S
C1843      C1844   1.353   1_655  D
C1843      H1855   1.087       .  S
C1844      C1845   1.491   1_455  S
C1844      H1856   1.085       .  S
C1845      C1846   1.407   1_655  A
C1845      C1850   1.405       .  A
C1846      C1847   1.407       .  A
C1846      H1857   1.083       .  S
C1847      C1848   1.404   1_455  A
C1847      H1858   1.083       .  S
C1848      C1849   1.409       .  A
C1849      C1850   1.399       .  A
C1849      H1859   1.083       .  S
C1850      H1860   1.083       .  S
C1861      C1862   1.405   1_655  A
C1861      C1866   1.407       .  A
C1862      C1863   1.410       .  A
C1862      H1875   1.083       .  S
C1863      C1864   1.411       .  A
C1863      H1876   1.083       .  S
C1864      C1865   1.408   1_455  A
C1864      C1867   1.504       .  S
C1865      C1866   1.400       .  A
C1865      H1877   1.081       .  S
C1866      H1878   1.084       .  S
C1867      C1868   1.357   1_455  D
C1867      H1879   1.084       .  S
C1868      C1869   1.503   1_655  S
C1868      H1880   1.085       .  S
C1869      C1870   1.408   1_455  A
C1869      C1874   1.410       .  A
C1870      C1871   1.401       .  A
C1870      H1881   1.083       .  S
C1871      C1872   1.403   1_655  A
C1871      H1882   1.083       .  S
C1872      C1873   1.410       .  A
C1873      C1874   1.407       .  A
C1873      H1883   1.083       .  S
C1874      H1884   1.081       .  S
C1885      C1886   1.405       .  A
C1885      C1890   1.412       .  A
C1886      C1887   1.410   1_455  A
C1886      H1899   1.083   1_455  S
C1887      C1888   1.411   1_655  A
C1887      H1900   1.083       .  S
C1888      C1889   1.407       .  A
C1888      C1891   1.507       .  S
C1889      C1890   1.404       .  A
C1889      H1901   1.082       .  S
C1890      H1902   1.083       .  S
C1891      C1892   1.359       .  D
C1891      H1903   1.084   1_455  S
C1892      C1893   1.508       .  S
C1892      H1904   1.085       .  S
C1893      C1894   1.410       .  A
C1893      C1898   1.410       .  A
C1894      C1895   1.407       .  A
C1894      H1905   1.083       .  S
C1895      C1896   1.407       .  A
C1895      H1906   1.083       .  S
C1896      C1897   1.409       .  A
C1897      C1898   1.408       .  A
C1897      H1907   1.083   1_455  S
C1898      H1908   1.081       .  S
C1909      C1910   1.405       .  A
C1909      C1914   1.410   1_455  A
C1910      C1911   1.409       .  A
C1910      H1923   1.083       .  S
C1911      C1912   1.410       .  A
C1911      H1924   1.083       .  S
C1912      C1913   1.408   1_455  A
C1912      C1915   1.503       .  S
C1913      C1914   1.403       .  A
C1913      H1925   1.082       .  S
C1914      H1926   1.083       .  S
C1915      C1916   1.358   1_455  D
C1915      H1927   1.083       .  S
C1916      C1917   1.506   1_655  S
C1916      H1928   1.085       .  S
C1917      C1918   1.409   1_455  A
C1917      C1922   1.410       .  A
C1918      C1919   1.403       .  A
C1918      H1929   1.083       .  S
C1919      C1920   1.406   1_655  A
C1919      H1930   1.083       .  S
C1920      C1921   1.410       .  A
C1921      C1922   1.407       .  A
C1921      H1931   1.083       .  S
C1922      H1932   1.080       .  S
C1933      C1934   1.403       .  A
C1933      C1938   1.408       .  A
C1934      C1935   1.406       .  A
C1934      H1947   1.083       .  S
C1935      C1936   1.409       .  A
C1935      H1948   1.083       .  S
C1936      C1937   1.408       .  A
C1936      C1939   1.500       .  S
C1937      C1938   1.402       .  A
C1937      H1949   1.082       .  S
C1938      H1950   1.083       .  S
C1939      C1940   1.356       .  D
C1939      H1951   1.083       .  S
C1940      C1941   1.504       .  S
C1940      H1952   1.085       .  S
C1941      C1942   1.408       .  A
C1941      C1946   1.410       .  A
C1942      C1943   1.404       .  A
C1942      H1953   1.083       .  S
C1943      C1944   1.408       .  A
C1943      H1954   1.083       .  S
C1944      C1945   1.410       .  A
C1945      C1946   1.407       .  A
C1945      H1955   1.083       .  S
C1946      H1956   1.080       .  S
C1957      C1958   1.407       .  A
C1957      C1962   1.414       .  A
C1958      C1959   1.405       .  A
C1958      H1971   1.083       .  S
C1959      C1960   1.409       .  A
C1959      H1972   1.083       .  S
C1960      C1961   1.411       .  A
C1960      C1963   1.510       .  S
C1961      C1962   1.414       .  A
C1961      H1973   1.081       .  S
C1962      H1974   1.083       .  S
C1963      C1964   1.360       .  D
C1963      H1975   1.085       .  S
C1964      C1965   1.509       .  S
C1964      H1976   1.084       .  S
C1965      C1966   1.412       .  A
C1965      C1970   1.408       .  A
C1966      C1967   1.412       .  A
C1966      H1977   1.083       .  S
C1967      C1968   1.406       .  A
C1967      H1978   1.083       .  S
C1968      C1969   1.408       .  A
C1969      C1970   1.401       .  A
C1969      H1979   1.084       .  S
C1970      H1980   1.082       .  S
C1981      C1982   1.409       .  A
C1981      C1986   1.408       .  A
C1982      C1983   1.395       .  A
C1982      H1995   1.083       .  S
C1983      C1984   1.401       .  A
C1983      H1996   1.084       .  S
C1984      C1985   1.412       .  A
C1984      C1987   1.496       .  S
C1985      C1986   1.411       .  A
C1985      H1997   1.082       .  S
C1986      H1998   1.083       .  S
C1987      C1988   1.350       .  D
C1987      H1999   1.085       .  S
C1988      C1989   1.501       .  S
C1988      H2000   1.086       .  S
C1989      C1990   1.407       .  A
C1989      C1994   1.410       .  A
C1990      C1991   1.405       .  A
C1990      H2001   1.083       .  S
C1991      C1992   1.405       .  A
C1991      H2002   1.083       .  S
C1992      C1993   1.407       .  A
C1993      C1994   1.403       .  A
C1993      H2003   1.083       .  S
C1994      H2004   1.081       .  S
C2005      C2006   1.406       .  A
C2005      C2010   1.410       .  A
C2006      C2007   1.406       .  A
C2006      H2019   1.083       .  S
C2007      C2008   1.409       .  A
C2007      H2020   1.083       .  S
C2008      C2009   1.407       .  A
C2008      C2011   1.501       .  S
C2009      C2010   1.405       .  A
C2009      H2021   1.081       .  S
C2010      H2022   1.083       .  S
C2011      C2012   1.357       .  D
C2011      H2023   1.087       .  S
C2012      C2013   1.500       .  S
C2012      H2024   1.085       .  S
C2013      C2014   1.409       .  A
C2013      C2018   1.405       .  A
C2014      C2015   1.411       .  A
C2014      H2025   1.083       .  S
C2015      C2016   1.406       .  A
C2015      H2026   1.083       .  S
C2016      C2017   1.410       .  A
C2017      C2018   1.401       .  A
C2017      H2027   1.083       .  S
C2018      H2028   1.083       .  S
C2029      C2030   1.406       .  A
C2029      C2034   1.414       .  A
C2030      C2031   1.408       .  A
C2030      H2043   1.083       .  S
C2031      C2032   1.411       .  A
C2031      H2044   1.083       .  S
C2032      C2033   1.406       .  A
C2032      C2035   1.504       .  S
C2033      C2034   1.402       .  A
C2033      H2045   1.081       .  S
C2034      H2046   1.083       .  S
C2035      C2036   1.357       .  D
C2035      H2047   1.086       .  S
C2036      C2037   1.499       .  S
C2036      H2048   1.084       .  S
C2037      C2038   1.408       .  A
C2037      C2042   1.407       .  A
C2038      C2039   1.404       .  A
C2038      H2049   1.082       .  S
C2039      C2040   1.406       .  A
C2039      H2050   1.083       .  S
C2040      C2041   1.404       .  A
C2041      C2042   1.405       .  A
C2041      H2051   1.083       .  S
C2042      H2052   1.083       .  S
C2053      C2054   1.406       .  A
C2053      C2058   1.405       .  A
C2054      C2055   1.409       .  A
C2054      H2067   1.083       .  S
C2055      C2056   1.410       .  A
C2055      H2068   1.083       .  S
C2056      C2057   1.411       .  A
C2056      C2059   1.509       .  S
C2057      C2058   1.401       .  A
C2057      H2069   1.079       .  S
C2058      H2070   1.084       .  S
C2059      C2060   1.354       .  D
C2059      H2071   1.085       .  S
C2060      C2061   1.501       .  S
C2060      H2072   1.083       .  S
C2061      C2062   1.404       .  A
C2061      C2066   1.414       .  A
C2062      C2063   1.396       .  A
C2062      H2073   1.084       .  S
C2063      C2064   1.406       .  A
C2063      H2074   1.084       .  S
C2064      C2065   1.409       .  A
C2065      C2066   1.414       .  A
C2065      H2075   1.083       .  S
C2066      H2076   1.081       .  S
C2077      C2078   1.406       .  A
C2077      C2082   1.408       .  A
C2078      C2079   1.398       .  A
C2078      H2091   1.083       .  S
C2079      C2080   1.403       .  A
C2079      H2092   1.083       .  S
C2080      C2081   1.412       .  A
C2080      C2083   1.498       .  S
C2081      C2082   1.410       .  A
C2081      H2093   1.082       .  S
C2082      H2094   1.083       .  S
C2083      C2084   1.352       .  D
C2083      H2095   1.084       .  S
C2084      C2085   1.503       .  S
C2084      H2096   1.085       .  S
C2085      C2086   1.408       .  A
C2085      C2090   1.412       .  A
C2086      C2087   1.404       .  A
C2086      H2097   1.083       .  S
C2087      C2088   1.403       .  A
C2087      H2098   1.083       .  S
C2088      C2089   1.406       .  A
C2089      C2090   1.405       .  A
C2089      H2099   1.083       .  S
C2090      H2100   1.080       .  S
C2101      C2102   1.405       .  A
C2101      C2106   1.411       .  A
C2102      C2103   1.409       .  A
C2102      H2115   1.083       .  S
C2103      C2104   1.409       .  A
C2103      H2116   1.083       .  S
C2104      C2105   1.406       .  A
C2104      C2107   1.502       .  S
C2105      C2106   1.402       .  A
C2105      H2117   1.082       .  S
C2106      H2118   1.083       .  S
C2107      C2108   1.358       .  D
C2107      H2119   1.084       .  S
C2108      C2109   1.505       .  S
C2108      H2120   1.086       .  S
C2109      C2110   1.409       .  A
C2109      C2114   1.409       .  A
C2110      C2111   1.405       .  A
C2110      H2121   1.083       .  S
C2111      C2112   1.407       .  A
C2111      H2122   1.083       .  S
C2112      C2113   1.411       .  A
C2113      C2114   1.407       .  A
C2113      H2123   1.083       .  S
C2114      H2124   1.081       .  S
C2125      C2126   1.404       .  A
C2125      C2130   1.405       .  A
C2126      C2127   1.397       .  A
C2126      H2139   1.083   1_455  S
C2127      C2128   1.404       .  A
C2127      H2140   1.084       .  S
C2128      C2129   1.406       .  A
C2128      C2131   1.480       .  S
C2129      C2130   1.396       .  A
C2129      H2141   1.081       .  S
C2130      H2142   1.083       .  S
C2131      C2132   1.348       .  D
C2131      H2143   1.088       .  S
C2132      C2133   1.470       .  S
C2132      H2144   1.084       .  S
C2133      C2134   1.395       .  A
C2133      C2138   1.400       .  A
C2134      C2135   1.393       .  A
C2134      H2145   1.084       .  S
C2135      C2136   1.416       .  A
C2135      H2146   1.077       .  S
C2136      C2137   1.413       .  A
C2137      C2138   1.395       .  A
C2137      H2147   1.080       .  S
C2138      H2148   1.083       .  S
C2149      C2150   1.407       .  A
C2149      C2154   1.405       .  A
C2150      C2151   1.398       .  A
C2150      H2163   1.083       .  S
C2151      C2152   1.404       .  A
C2151      H2164   1.084       .  S
C2152      C2153   1.408       .  A
C2152      C2155   1.488       .  S
C2153      C2154   1.396       .  A
C2153      H2165   1.079       .  S
C2154      H2166   1.083       .  S
C2155      C2156   1.348   1_655  D
C2155      H2167   1.085       .  S
C2156      C2157   1.484       .  S
C2156      H2168   1.083       .  S
C2157      C2158   1.403       .  A
C2157      C2162   1.408   1_455  A
C2158      C2159   1.396       .  A
C2158      H2169   1.083       .  S
C2159      C2160   1.405   1_455  A
C2159      H2170   1.083       .  S
C2160      C2161   1.403       .  A
C2161      C2162   1.395       .  A
C2161      H2171   1.083       .  S
C2162      H2172   1.081       .  S
C2173      C2174   1.404       .  A
C2173      C2178   1.405       .  A
C2174      C2175   1.396       .  A
C2174      H2187   1.083   1_455  S
C2175      C2176   1.403       .  A
C2175      H2188   1.083       .  S
C2176      C2177   1.407       .  A
C2176      C2179   1.483       .  S
C2177      C2178   1.392       .  A
C2177      H2189   1.080       .  S
C2178      H2190   1.083       .  S
C2179      C2180   1.345       .  D
C2179      H2191   1.086       .  S
C2180      C2181   1.477       .  S
C2180      H2192   1.083       .  S
C2181      C2182   1.399       .  A
C2181      C2186   1.408       .  A
C2182      C2183   1.390       .  A
C2182      H2193   1.084       .  S
C2183      C2184   1.405       .  A
C2183      H2194   1.083       .  S
C2184      C2185   1.404       .  A
C2185      C2186   1.397       .  A
C2185      H2195   1.083       .  S
C2186      H2196   1.082       .  S
C2197      C2198   1.405   1_455  A
C2197      C2202   1.408       .  A
C2198      C2199   1.405       .  A
C2198      H2211   1.083       .  S
C2199      C2200   1.408   1_655  A
C2199      H2212   1.083       .  S
C2200      C2201   1.409       .  A
C2200      C2203   1.504       .  S
C2201      C2202   1.407       .  A
C2201      H2213   1.082       .  S
C2202      H2214   1.083       .  S
C2203      C2204   1.357       .  D
C2203      H2215   1.084   1_455  S
C2204      C2205   1.505       .  S
C2204      H2216   1.085       .  S
C2205      C2206   1.409       .  A
C2205      C2210   1.409       .  A
C2206      C2207   1.406       .  A
C2206      H2217   1.083       .  S
C2207      C2208   1.406       .  A
C2207      H2218   1.083       .  S
C2208      C2209   1.411       .  A
C2209      C2210   1.405       .  A
C2209      H2219   1.083   1_455  S
C2210      H2220   1.081       .  S
C2221      C2222   1.404   1_455  A
C2221      C2226   1.409       .  A
C2222      C2223   1.409       .  A
C2222      H2235   1.083       .  S
C2223      C2224   1.410   1_655  A
C2223      H2236   1.083       .  S
C2224      C2225   1.408       .  A
C2224      C2227   1.505       .  S
C2225      C2226   1.406       .  A
C2225      H2237   1.082       .  S
C2226      H2238   1.083       .  S
C2227      C2228   1.358       .  D
C2227      H2239   1.084       .  S
C2228      C2229   1.510       .  S
C2228      H2240   1.086       .  S
C2229      C2230   1.409       .  A
C2229      C2234   1.411       .  A
C2230      C2231   1.406       .  A
C2230      H2241   1.083       .  S
C2231      C2232   1.408       .  A
C2231      H2242   1.083       .  S
C2232      C2233   1.412       .  A
C2233      C2234   1.410       .  A
C2233      H2243   1.083       .  S
C2234      H2244   1.080       .  S
C2245      C2246   1.402       .  A
C2245      C2250   1.402       .  A
C2246      C2247   1.396       .  A
C2246      H2259   1.083       .  S
C2247      C2248   1.402       .  A
C2247      H2260   1.083       .  S
C2248      C2249   1.405       .  A
C2248      C2251   1.471       .  S
C2249      C2250   1.388       .  A
C2249      H2261   1.082   1_655  S
C2250      H2262   1.084   1_655  S
C2251      C2252   1.341       .  D
C2251      H2263   1.087       .  S
C2252      C2253   1.470       .  S
C2252      H2264   1.086       .  S
C2253      C2254   1.399       .  A
C2253      C2258   1.406       .  A
C2254      C2255   1.393       .  A
C2254      H2265   1.083       .  S
C2255      C2256   1.406       .  A
C2255      H2266   1.083       .  S
C2256      C2257   1.403       .  A
C2257      C2258   1.391       .  A
C2257      H2267   1.083       .  S
C2258      H2268   1.082       .  S
