geometry optimzed in LAMMPS
_audit_creation_date              2020-11-30 
_audit_creation_method            'lammps2cif' 
_symmetry_space_group_name_H-M    'P1' 
_symmetry_Int_Tables_number       1 
_symmetry_cell_setting            triclinic 
loop_ 
_symmetry_equiv_pos_as_xyz 
  x,y,z 
_cell_length_a                    52.50942595 
_cell_length_b                    52.6007794450475 
_cell_length_c                    52.538216756169845 
_cell_angle_alpha                 90.05489095160985 
_cell_angle_beta                  89.99733447802333 
_cell_angle_gamma                 90.02274606621961 
loop_ 
_atom_site_label 
_atom_site_type_symbol 
_atom_site_fract_x 
_atom_site_fract_y 
_atom_site_fract_z 
_atom_site_charge 
C1          C  0.96804440  0.27546497  0.22041984     0.02900
C2          C  0.97253265  0.29129589  0.24157347    -0.13300
C3          C  0.97752143  0.28087954  0.26554337     0.00400
C4          C  0.97701285  0.25458296  0.26873221    -0.11800
C5          C  0.97163782  0.23830610  0.24842388     0.02800
C6          C  0.96749009  0.24869524  0.22392968    -0.11200
H7          H  0.97325405  0.31175447  0.23917505     0.08400
H8          H  0.98039456  0.24661987  0.28747933     0.06000
H9          H  0.96385445  0.23623290  0.20792184     0.05800
O10         O  0.01814327  0.41839308  0.47468741    -0.86800
O11         O  0.02397251  0.56325400  0.46554123    -0.86900
O12         O  0.97629056  0.49102876  0.44284653    -0.88600
O13         O  0.05991960  0.48877923  0.43443577    -0.87400
O14         O  0.09288706  0.49106354  0.46294339    -0.86900
O15         O  0.94853070  0.49300815  0.47650616    -0.88300
O16         O  0.01989832  0.53063979  0.43682698    -0.86800
O17         O  0.01540503  0.44800707  0.44279294    -0.86400
Zr18       Zr  0.02019569  0.49066380  0.45972772     2.84300
O19         O  0.04884587  0.51717966  0.48133314    -1.08400
O20         O  0.99658865  0.46715797  0.48927284    -1.09100
C21         C  0.01526425  0.42494747  0.45121109     1.06300
C22         C  0.02152429  0.55440895  0.44272758     1.06300
C23         C  0.95348008  0.49180308  0.45238047     1.09300
C24         C  0.08400042  0.48966746  0.44005718     1.07100
H25         H  0.98610728  0.52886899  0.47606736     0.32600
O26         O  0.99747950  0.51854594  0.48617179    -1.29300
H27         H  0.05702279  0.45399575  0.47311380     0.32300
O28         O  0.04768918  0.46538230  0.48413710    -1.31000
O29         O  0.03407293  0.56826488  0.54672980    -0.86800
O30         O  0.03147387  0.42445988  0.55590809    -0.88300
O31         O  0.95377976  0.53668530  0.51618515    -0.86800
O32         O  0.09820556  0.53277834  0.50444816    -0.86900
O33         O  0.09641195  0.45038179  0.50592567    -0.86600
O34         O  0.95154887  0.45429847  0.51878485    -0.86400
O35         O  0.98974647  0.49933737  0.58729645    -0.86800
O36         O  0.07368390  0.49465747  0.57912500    -0.86200
O37         O  0.95670228  0.49657575  0.55879121    -0.87300
O38         O  0.10104098  0.49086701  0.54529367    -0.86500
O39         O  0.98486656  0.56703827  0.51203483    -0.86900
O40         O  0.98131750  0.42236483  0.51933027    -0.86600
O41         O  0.06552544  0.41994376  0.51078869    -0.86200
O42         O  0.06859080  0.56481521  0.50500590    -0.86600
O43         O  0.03667491  0.53942942  0.57938022    -0.86900
O44         O  0.03476474  0.45686478  0.58499593    -0.88300
Zr45       Zr  0.02616201  0.54490499  0.50794674     2.83100
Zr46       Zr  0.02387670  0.44199130  0.51391955     2.83500
Zr47       Zr  0.97389289  0.49485062  0.51569471     2.84100
Zr48       Zr  0.07599395  0.49200268  0.50607708     2.83400
Zr49       Zr  0.02969793  0.49674089  0.56238347     2.84200
O50         O  0.05190308  0.46901296  0.53541948    -1.08800
O51         O  0.00211359  0.52172183  0.53767190    -1.08300
C52         C  0.03831919  0.56214582  0.57009220     1.06300
C53         C  0.03561246  0.43320795  0.57850596     1.08900
C54         C  0.96128775  0.56005762  0.51465732     1.06500
C55         C  0.09186477  0.55653700  0.50459374     1.06900
C56         C  0.08910381  0.42701741  0.50810441     1.06400
C57         C  0.95799867  0.43061847  0.52005585     1.06000
C58         C  0.96567688  0.49844781  0.58163005     1.06400
C59         C  0.09630777  0.49213345  0.56943334     1.05900
H60         H  0.99156261  0.46001805  0.55285769     0.32600
O61         O  0.00122074  0.46979598  0.54069850    -1.29900
H62         H  0.06572111  0.53004117  0.54146059     0.32600
O63         O  0.05346053  0.51964086  0.53254941    -1.31300
C64         C  0.98580724  0.73180211  0.74276258     0.02900
C65         C  0.97392382  0.75065069  0.72762374    -0.13300
C66         C  0.98426573  0.75697253  0.70352444     0.00400
C67         C  0.00581543  0.74384738  0.69475149    -0.11800
C68         C  0.01748170  0.72504322  0.70952627     0.02800
C69         C  0.00796108  0.71998318  0.73382430    -0.11200
H70         H  0.95662907  0.75975131  0.73417732     0.08400
H71         H  0.01294800  0.74774931  0.67580121     0.06000
H72         H  0.01684151  0.70532499  0.74528161     0.05800
C73         C  0.99559109  0.25320185  0.74723642     0.02900
C74         C  0.01562483  0.26684122  0.73620504    -0.13300
C75         C  0.02692620  0.25898919  0.71338094     0.00400
C76         C  0.01871676  0.23617999  0.70211040    -0.11800
C77         C  0.99851320  0.22211420  0.71255526     0.02800
C78         C  0.98666492  0.23085145  0.73516124    -0.11200
H79         H  0.02102726  0.28487465  0.74462621     0.08400
H80         H  0.02723231  0.22986906  0.68441031     0.06000
H81         H  0.97051999  0.22068512  0.74295773     0.05800
C82         C  0.95432326  0.71318568  0.22207476     0.02900
C83         C  0.96181338  0.69622498  0.24127637    -0.13300
C84         C  0.96489341  0.70443575  0.26644876     0.00400
C85         C  0.95981616  0.72974536  0.27261411    -0.11800
C86         C  0.95234144  0.74727383  0.25404564     0.02800
C87         C  0.94999337  0.73908725  0.22840378    -0.11200
H88         H  0.96544020  0.67649979  0.23649643     0.08400
H89         H  0.96268537  0.73621325  0.29201447     0.06000
H90         H  0.94459254  0.75250003  0.21374921     0.05800
O91         O  0.98128911  0.03715927  0.40038473    -0.86800
O92         O  0.97487955  0.03432868  0.54460329    -0.86900
O93         O  0.94147564  0.06798937  0.46251433    -0.88600
O94         O  0.02414950  0.06330254  0.47609859    -0.87400
O95         O  0.05209156  0.02980508  0.47742144    -0.86900
O96         O  0.90825272  0.03967236  0.46036002    -0.88300
O97         O  0.97729771  0.06619799  0.51488085    -0.86800
O98         O  0.98271104  0.06828988  0.43090880    -0.86400
Zr99       Zr  0.98095795  0.04598641  0.47233904     2.84300
O100        O  0.00288730  0.01769897  0.49878622    -1.08400
O101        O  0.95550834  0.02145057  0.44531970    -1.09100
C102        C  0.98152913  0.06074378  0.40738569     1.06300
C103        C  0.97570755  0.05802470  0.53819177     1.06300
C104        C  0.91803302  0.06208560  0.45797139     1.09300
C105        C  0.04678707  0.05369212  0.47788133     1.07100
H106        H  0.94075552  0.03283896  0.50564313     0.32600
O107        O  0.95144149  0.02165694  0.49579914    -1.29300
H108        H  0.01883744  0.02904779  0.43786900     0.32300
O109        O  0.00695083  0.01905461  0.44771563    -1.31000
O110        O  0.97063647  0.95205657  0.54317506    -0.86800
O111        O  0.97823602  0.95462988  0.39790458    -0.88300
O112        O  0.90192624  0.99954417  0.50914789    -0.86800
O113        O  0.04734869  0.99083201  0.51780852    -0.86900
O114        O  0.05218342  0.98934747  0.43395341    -0.86600
O115        O  0.90789119  0.99861960  0.42448921    -0.86400
O116        O  0.93221708  0.92481933  0.46553283    -0.86800
O117        O  0.01447375  0.91901502  0.47127431    -0.86200
O118        O  0.90320832  0.95731336  0.46166801    -0.87300
O119        O  0.04675096  0.94824653  0.47434357    -0.86500
O120        O  0.93146315  0.99614975  0.54114091    -0.86900
O121        O  0.94135717  0.99761897  0.39645309    -0.86600
O122        O  0.02327857  0.99237364  0.40140225    -0.86200
O123        O  0.01436004  0.99379934  0.54626828    -0.86600
O124        O  0.96976048  0.92138660  0.51210783    -0.86900
O125        O  0.97352971  0.92338206  0.42801423    -0.88300
Zr126      Zr  0.97401478  0.99362185  0.52253157     2.83100
Zr127      Zr  0.98102731  0.99518453  0.42035206     2.83500
Zr128      Zr  0.92565514  0.99749085  0.46816353     2.84100
Zr129      Zr  0.02867763  0.99064337  0.47459220     2.83400
Zr130      Zr  0.97439916  0.94282804  0.47067781     2.84200
O131        O  0.00328185  0.96698190  0.44673984    -1.08800
O132        O  0.94812186  0.96965314  0.49507692    -1.08300
C133        C  0.96929354  0.92863159  0.53571883     1.06300
C134        C  0.97491819  0.93122781  0.40464698     1.08900
C135        C  0.90830978  0.99854121  0.53307833     1.06500
C136        C  0.03840193  0.99265799  0.54079363     1.06900
C137        C  0.04622596  0.99019079  0.40999693     1.06400
C138        C  0.91731196  0.99847391  0.40161131     1.06000
C139        C  0.90969138  0.93360306  0.46116230     1.06400
C140        C  0.03827318  0.92527529  0.47266806     1.05900
H141        H  0.94195698  0.96143925  0.43231654     0.32600
O142        O  0.95229599  0.97099523  0.44414110    -1.29900
H143        H  0.00936030  0.95509118  0.50977106     0.32600
O144        O  0.00005315  0.96633713  0.49861416    -1.31300
C145        C  0.24652593  0.24558141  0.51053007     0.02900
C146        C  0.22799563  0.22681782  0.50682270    -0.13300
C147        C  0.23441052  0.20098503  0.50614549     0.00400
C148        C  0.25997972  0.19386277  0.50857474    -0.11800
C149        C  0.27903897  0.21226954  0.51215745     0.02800
C150        C  0.27229248  0.23830448  0.51323550    -0.11200
H151        H  0.20827876  0.23248420  0.50448120     0.08400
H152        H  0.26509017  0.17389514  0.50811759     0.06000
H153        H  0.28684114  0.25262270  0.51608428     0.05800
C154        C  0.75716670  0.22845391  0.50775306     0.02900
C155        C  0.76785675  0.25077766  0.51835014    -0.13300
C156        C  0.78734829  0.26385336  0.50508240     0.00400
C157        C  0.79589963  0.25423069  0.48167325    -0.11800
C158        C  0.78686525  0.23104107  0.47205289     0.02800
C159        C  0.76708222  0.21869759  0.48502169    -0.11200
H160        H  0.76109125  0.25788432  0.53647814     0.08400
H161        H  0.81080048  0.26432123  0.47162070     0.06000
H162        H  0.75996220  0.20058938  0.47823256     0.05800
C163        C  0.74494021  0.74809774  0.49652356     0.02900
C164        C  0.75259734  0.76059787  0.47434071    -0.13300
C165        C  0.77731551  0.75797138  0.46477333     0.00400
C166        C  0.79307892  0.73910096  0.47517340    -0.11800
C167        C  0.78507057  0.72435857  0.49599702     0.02800
C168        C  0.76115887  0.72956238  0.50739761    -0.11200
H169        H  0.73987285  0.77450488  0.46601547     0.08400
H170        H  0.81225412  0.73658210  0.46803415     0.06000
H171        H  0.75559123  0.71986655  0.52469832     0.05800
C172        C  0.24348007  0.73783185  0.51042150     0.02900
C173        C  0.26797793  0.74912269  0.50976989    -0.13300
C174        C  0.27048051  0.77557297  0.50484173     0.00400
C175        C  0.24826335  0.79003750  0.50084388    -0.11800
C176        C  0.22414485  0.77880105  0.50121999     0.02800
C177        C  0.22198302  0.75287551  0.50605873    -0.11200
H178        H  0.28472756  0.73751644  0.51280293     0.08400
H179        H  0.24962880  0.81036305  0.49781168     0.06000
H180        H  0.20329464  0.74406809  0.50582682     0.05800
C181        C  0.71384262  0.96775502  0.20540525     0.02900
C182        C  0.69936248  0.95721243  0.22530946    -0.13300
C183        C  0.70976155  0.95373773  0.24959550     0.00400
C184        C  0.73528116  0.95985640  0.25383231    -0.11800
C185        C  0.75014888  0.97098236  0.23479734     0.02800
C186        C  0.73934800  0.97531538  0.21043545    -0.11200
H187        H  0.67950774  0.95253202  0.22213006     0.08400
H188        H  0.74321862  0.95784430  0.27279073     0.06000
H189        H  0.75055912  0.98435811  0.19570591     0.05800
O190        O  0.48672854  0.06668939  0.51630651    -0.86800
O191        O  0.47936365  0.92314396  0.51220687    -0.86900
O192        O  0.45234523  0.99804819  0.47332272    -0.88600
O193        O  0.45414036  0.99452126  0.55589469    -0.87400
O194        O  0.48503350  0.99215800  0.58670584    -0.86900
O195        O  0.48255888  0.99738526  0.44182758    -0.88300
O196        O  0.44992281  0.95525102  0.51309335    -0.86800
O197        O  0.45429232  0.03749678  0.51601006    -0.86400
Zr198      Zr  0.47374615  0.99541846  0.51438972     2.84300
O199        O  0.49843114  0.96809694  0.53952192    -1.08400
O200        O  0.49989286  0.02096271  0.48902923    -1.09100
C201        C  0.46285489  0.06054906  0.51634963     1.06300
C202        C  0.45616615  0.93144149  0.51231864     1.06300
C203        C  0.45931921  0.99823245  0.44973093     1.09300
C204        C  0.46157303  0.99322293  0.57923857     1.07100
H205        H  0.48602698  0.95975271  0.47642290     0.32600
O206        O  0.49733063  0.96951305  0.48714942    -1.29300
H207        H  0.49118869  0.03002811  0.55164208     0.32300
O208        O  0.50108006  0.01922324  0.54056006    -1.31000
O209        O  0.56151795  0.91804246  0.51157042    -0.86800
O210        O  0.56962169  0.06318853  0.51569248    -0.88300
O211        O  0.52151424  0.95407882  0.43956563    -0.86800
O212        O  0.52613787  0.94995852  0.58508917    -0.86900
O213        O  0.52965567  0.03362568  0.58721378    -0.86600
O214        O  0.52432206  0.03775670  0.44241102    -0.86400
O215        O  0.59655619  0.98745641  0.46983944    -0.86800
O216        O  0.59822367  0.98245832  0.55207042    -0.86200
O217        O  0.56437143  0.99204479  0.44071473    -0.87300
O218        O  0.56815120  0.98220707  0.58384203    -0.86500
O219        O  0.52097395  0.92269134  0.46983732    -0.86900
O220        O  0.52638666  0.06721397  0.47452509    -0.86600
O221        O  0.52923805  0.06463397  0.55656960    -0.86200
O222        O  0.52433208  0.92026342  0.55310063    -0.86600
O223        O  0.59464150  0.94650400  0.51288520    -0.86900
O224        O  0.59973897  0.03155752  0.51561484    -0.88300
Zr225      Zr  0.52191910  0.94211372  0.51196299     2.83100
Zr226      Zr  0.52751496  0.04420436  0.51496845     2.83500
Zr227      Zr  0.52390395  0.99509916  0.46207610     2.84100
Zr228      Zr  0.52640224  0.99208220  0.56521408     2.83400
Zr229      Zr  0.57688925  0.99045351  0.51199345     2.84200
O230        O  0.55318965  0.01693112  0.53946032    -1.08800
O231        O  0.54871525  0.96709793  0.48636431    -1.08300
C232        C  0.58548963  0.92348188  0.51275551     1.06300
C233        C  0.59289381  0.05530219  0.51628583     1.08900
C234        C  0.52088149  0.93042179  0.44648728     1.06500
C235        C  0.52621165  0.92674918  0.57681893     1.06900
C236        C  0.52993263  0.05726213  0.58001898     1.06400
C237        C  0.52511508  0.06100168  0.45071965     1.06000
C238        C  0.58781946  0.98825237  0.44681852     1.06400
C239        C  0.59082668  0.97791057  0.57504228     1.05900
H240        H  0.56281034  0.02901117  0.47718926     0.32600
O241        O  0.55195730  0.01857085  0.48767950    -1.29900
H242        H  0.55897726  0.95416783  0.54652302     0.32600
O243        O  0.54917390  0.96630462  0.53697149    -1.31300
C244        C  0.24034586  0.99879370  0.74628566     0.02900
C245        C  0.26225051  0.99530717  0.73163349    -0.13300
C246        C  0.26081029  0.99078407  0.70556593     0.00400
C247        C  0.23698422  0.99002097  0.69361548    -0.11800
C248        C  0.21434804  0.99334243  0.70774506     0.02800
C249        C  0.21616470  0.99786632  0.73437860    -0.11200
H250        H  0.28079569  0.99599142  0.74074879     0.08400
H251        H  0.23610347  0.98674574  0.67326564     0.06000
H252        H  0.19908191  0.00026972  0.74566665     0.05800
C253        C  0.71289256  0.99379235  0.74464529     0.02900
C254        C  0.73084701  0.00756413  0.72976953    -0.13300
C255        C  0.74361169  0.99524415  0.70934711     0.00400
C256        C  0.73680717  0.97029207  0.70309439    -0.11800
C257        C  0.71884235  0.95653813  0.71733693     0.02800
C258        C  0.70820106  0.96816776  0.73885340    -0.11200
H259        H  0.73481140  0.02731524  0.73402577     0.08400
H260        H  0.74503770  0.96219190  0.68604615     0.06000
H261        H  0.69474932  0.95779237  0.75048578     0.05800
C262        C  0.27465540  0.98848905  0.23908148     0.02900
C263        C  0.29285843  0.99048734  0.25840587    -0.13300
C264        C  0.28589902  0.98939027  0.28405444     0.00400
C265        C  0.26016005  0.98661545  0.29044430    -0.11800
C266        C  0.24141708  0.98485948  0.27145086     0.02800
C267        C  0.24870450  0.98577044  0.24557125    -0.11200
H268        H  0.31272071  0.99291007  0.25330780     0.08400
H269        H  0.25462166  0.98564378  0.31029845     0.06000
H270        H  0.23444683  0.98426422  0.23075053     0.05800
O271        O  0.55111241  0.99384376  0.00848893    -0.86800
O272        O  0.40635864  0.99361041  0.02179915    -0.86900
O273        O  0.48437862  0.03401743  0.04604011    -0.88600
O274        O  0.47937442  0.95172783  0.04637078    -0.87400
O275        O  0.47596214  0.92116983  0.01542428    -0.86900
O276        O  0.48198325  0.06541195  0.01583515    -0.88300
O277        O  0.43976011  0.99289950  0.04991589    -0.86800
O278        O  0.52344609  0.99195299  0.04224366    -0.86400
Zr279      Zr  0.47965153  0.99310513  0.02534931     2.84300
O280        O  0.45133668  0.96780223  0.00206923    -1.08400
O281        O  0.50290346  0.01905611  0.99746496    -1.09100
C282        C  0.54621793  0.99268853  0.03265185     1.06300
C283        C  0.41565140  0.99292485  0.04456340     1.06300
C284        C  0.48518653  0.05748414  0.03892325     1.09300
C285        C  0.47752735  0.92835757  0.03891895     1.07100
H286        H  0.44229017  0.03034400  0.01410747     0.32600
O287        O  0.45179358  0.01968923  0.00250456    -1.29300
H288        H  0.51449416  0.95680380  0.00665500     0.32300
O289        O  0.50297088  0.96755478  0.99721131    -1.31000
O290        O  0.39910245  0.99633841  0.93941798    -0.86800
O291        O  0.54272588  0.99483392  0.92585447    -0.88300
O292        O  0.43357052  0.06664317  0.97695553    -0.86800
O293        O  0.43273048  0.92153362  0.97656988    -0.86900
O294        O  0.51616713  0.92104654  0.96930767    -0.86600
O295        O  0.51767202  0.06568610  0.96865475    -0.86400
O296        O  0.46003761  0.03475493  0.90351824    -0.86800
O297        O  0.46563937  0.95159371  0.90252476    -0.86200
O298        O  0.46534399  0.06561564  0.93398401    -0.87300
O299        O  0.46859466  0.92106743  0.93355347    -0.86500
O300        O  0.40307737  0.03546529  0.97887958    -0.86900
O301        O  0.54800981  0.03442937  0.96614753    -0.86600
O302        O  0.54626803  0.95241349  0.96532251    -0.86200
O303        O  0.40230128  0.95267945  0.97955452    -0.86600
O304        O  0.42624483  0.99445195  0.90523424    -0.86900
O305        O  0.50977149  0.99667067  0.89721567    -0.88300
Zr306      Zr  0.42380201  0.99397476  0.97883905     2.83100
Zr307      Zr  0.52583104  0.99370166  0.96905558     2.83500
Zr308      Zr  0.47540564  0.04534218  0.97438610     2.84100
Zr309      Zr  0.47459423  0.94219178  0.97401853     2.83400
Zr310      Zr  0.46997875  0.99357868  0.92230556     2.84200
O311        O  0.49794176  0.96771883  0.94566217    -1.08800
O312        O  0.44795933  0.01892750  0.95144280    -1.08300
C313        C  0.40371191  0.99616113  0.91522048     1.06300
C314        C  0.53383871  0.99658644  0.90297682     1.08900
C315        C  0.41006377  0.05901056  0.97779823     1.06500
C316        C  0.40932026  0.92913158  0.97821872     1.06900
C317        C  0.53938112  0.92885097  0.96608411     1.06400
C318        C  0.54109247  0.05802732  0.96619424     1.06000
C319        C  0.45896988  0.05799105  0.91146558     1.06400
C320        C  0.46499761  0.92827253  0.91037339     1.05900
H321        H  0.50731344  0.03052165  0.93400532     0.32600
O322        O  0.49803552  0.01972273  0.94557731    -1.29900
H323        H  0.43480360  0.95787642  0.94121414     0.32600
O324        O  0.44672257  0.96816655  0.95069173    -1.31300
C325        C  0.52182776  0.21693644  0.26786526     0.02900
C326        C  0.52547896  0.24309648  0.26234472    -0.13300
C327        C  0.52488666  0.25160774  0.23677480     0.00400
C328        C  0.52055613  0.23404603  0.21721408    -0.11800
C329        C  0.51744338  0.20826297  0.22240069     0.02800
C330        C  0.51820044  0.19977003  0.24758630    -0.11200
H331        H  0.52852086  0.25657538  0.27763654     0.08400
H332        H  0.52007476  0.24049071  0.19760373     0.06000
H333        H  0.51589282  0.17964793  0.25140762     0.05800
C334        C  0.51740825  0.73387298  0.23701858     0.02900
C335        C  0.51963555  0.74536338  0.26130394    -0.13300
C336        C  0.51150023  0.77087928  0.26493575     0.00400
C337        C  0.50225715  0.78454939  0.24372551    -0.11800
C338        C  0.50039799  0.77323365  0.21964306     0.02800
C339        C  0.50731132  0.74781990  0.21678063    -0.11200
H340        H  0.52729353  0.73456692  0.27708077     0.08400
H341        H  0.49741555  0.80447125  0.24570923     0.06000
H342        H  0.50539785  0.73882504  0.19828545     0.05800
C343        C  0.52072778  0.72562410  0.77662506     0.02900
C344        C  0.53435124  0.73833121  0.75712547    -0.13300
C345        C  0.52424305  0.76075840  0.74622928     0.00400
C346        C  0.50124360  0.77052127  0.75544079    -0.11800
C347        C  0.48796550  0.75861442  0.77520402     0.02800
C348        C  0.49740807  0.73569526  0.78499526    -0.11200
H349        H  0.55253395  0.73102824  0.75071963     0.08400
H350        H  0.49448220  0.78846197  0.74791270     0.06000
H351        H  0.48725608  0.72624282  0.80025336     0.05800
C352        C  0.50213419  0.22776647  0.74529141     0.02900
C353        C  0.48043084  0.21643636  0.75588142    -0.13300
C354        C  0.46821017  0.22694794  0.77718110     0.00400
C355        C  0.47714652  0.25013587  0.78691184    -0.11800
C356        C  0.49919095  0.26169684  0.77716404     0.02800
C357        C  0.51201005  0.25020542  0.75641044    -0.11200
H358        H  0.47419976  0.19829659  0.74834296     0.08400
H359        H  0.46770786  0.25867761  0.80314217     0.06000
H360        H  0.52931428  0.25861590  0.74900768     0.05800
O361        O  0.97528542  0.42263700  0.01259134    -0.86800
O362        O  0.97393269  0.56739404  0.01145748    -0.86900
O363        O  0.01794780  0.49419224  0.04203427    -0.88600
O364        O  0.93435021  0.49619029  0.04152853    -0.87400
O365        O  0.90270679  0.49636954  0.01137951    -0.86900
O366        O  0.04846689  0.49297539  0.01084662    -0.88300
O367        O  0.97448821  0.53703608  0.04278166    -0.86800
O368        O  0.97589091  0.45355701  0.04339927    -0.86400
Zr369      Zr  0.97593533  0.49503228  0.02171922     2.84300
O370        O  0.94999523  0.52024435  0.99558617    -1.08400
O371        O  0.00127634  0.46857447  0.99642552    -1.09100
C372        C  0.97561963  0.42999621  0.03607857     1.06300
C373        C  0.97350859  0.56051687  0.03521274     1.06300
C374        C  0.04136445  0.49307978  0.03436006     1.09300
C375        C  0.91077858  0.49701659  0.03463259     1.07100
H376        H  0.01252887  0.53120471  0.00610651     0.32600
O377        O  0.00177215  0.52046080  0.99575323    -1.29300
H378        H  0.93870557  0.45859261  0.00703859     0.32300
O379        O  0.94942599  0.46906718  0.99644962    -1.31000
O380        O  0.97313335  0.56634204  0.92830499    -0.86800
O381        O  0.97297196  0.42135845  0.93001743    -0.88300
O382        O  0.04826385  0.53484452  0.96747806    -0.86800
O383        O  0.90306574  0.53670965  0.96545689    -0.86900
O384        O  0.90249130  0.45313171  0.96759452    -0.86600
O385        O  0.04756175  0.45170301  0.97025048    -0.86400
O386        O  0.01798827  0.49313735  0.89729343    -0.86800
O387        O  0.93547625  0.48252328  0.89832653    -0.86200
O388        O  0.04767234  0.49391328  0.92937175    -0.87300
O389        O  0.90465994  0.48246427  0.92933567    -0.86500
O390        O  0.01773709  0.56602323  0.96691766    -0.86900
O391        O  0.01648314  0.42111359  0.97069789    -0.86600
O392        O  0.93363486  0.42258075  0.96710304    -0.86200
O393        O  0.93450143  0.56694641  0.96748748    -0.86600
O394        O  0.97256640  0.53584184  0.89692293    -0.86900
O395        O  0.97453599  0.45089187  0.89794342    -0.88300
Zr396      Zr  0.97570426  0.54561988  0.96964014     2.83100
Zr397      Zr  0.97535456  0.44301316  0.97089899     2.83500
Zr398      Zr  0.02674936  0.49367912  0.97011972     2.84100
Zr399      Zr  0.92383755  0.49466862  0.96993628     2.83400
Zr400      Zr  0.97603642  0.49360616  0.91788841     2.84200
O401        O  0.95104515  0.46968409  0.94556983    -1.08800
O402        O  0.00136423  0.51941655  0.94407122    -1.08300
C403        C  0.97167087  0.55931342  0.90477013     1.06300
C404        C  0.97272267  0.42768838  0.90626376     1.08900
C405        C  0.04120566  0.55838643  0.96633287     1.06500
C406        C  0.91091818  0.56015378  0.96540928     1.06900
C407        C  0.91010275  0.42976410  0.96572845     1.06400
C408        C  0.04008642  0.42819838  0.97056907     1.06000
C409        C  0.04112973  0.49372556  0.90576502     1.06400
C410        C  0.91295092  0.47726566  0.90673732     1.05900
H411        H  0.01189938  0.45683266  0.93385377     0.32600
O412        O  0.00136641  0.46776426  0.94423439    -1.29900
H413        H  0.93897188  0.52966406  0.93253815     0.32600
O414        O  0.94978785  0.51966740  0.94343955    -1.31300
C415        C  0.78776363  0.50878225  0.27824650     0.02900
C416        C  0.76129736  0.50526729  0.27410980    -0.13300
C417        C  0.75054786  0.51132642  0.25016717     0.00400
C418        C  0.76610995  0.52117391  0.23099523    -0.11800
C419        C  0.79225503  0.52435088  0.23466954     0.02800
C420        C  0.80292798  0.51823418  0.25829679    -0.11200
H421        H  0.74949092  0.49713359  0.28891059     0.08400
H422        H  0.75794860  0.52471436  0.21235772     0.06000
H423        H  0.82326040  0.52049628  0.26107452     0.05800
C424        C  0.25932349  0.49470098  0.21398431     0.02900
C425        C  0.24010587  0.49324655  0.19544982    -0.13300
C426        C  0.21437584  0.49446645  0.20216141     0.00400
C427        C  0.20775480  0.49717248  0.22777149    -0.11800
C428        C  0.22637764  0.49875539  0.24694372     0.02800
C429        C  0.25243951  0.49750177  0.23992569    -0.11200
H430        H  0.24528170  0.49135304  0.17555715     0.08400
H431        H  0.18775582  0.49715146  0.23287705     0.06000
H432        H  0.26709998  0.49846680  0.25439079     0.05800
C433        C  0.29079034  0.48619941  0.77653126     0.02900
C434        C  0.26945565  0.48348021  0.79247380    -0.13300
C435        C  0.24533620  0.47842711  0.78240081     0.00400
C436        C  0.24236474  0.47628988  0.75610679    -0.11800
C437        C  0.26288782  0.47983641  0.73953605     0.02800
C438        C  0.28746470  0.48449633  0.74973451    -0.11200
H439        H  0.27168269  0.48504480  0.81293227     0.08400
H440        H  0.22346442  0.47336858  0.74827318     0.06000
H441        H  0.30349948  0.48743695  0.73711565     0.05800
C442        C  0.78673547  0.47851821  0.73861075     0.02900
C443        C  0.79120909  0.45265634  0.74361139    -0.13300
C444        C  0.78202136  0.44103349  0.76582265     0.00400
C445        C  0.76454090  0.45450719  0.78089927    -0.11800
C446        C  0.75808396  0.47978200  0.77558575     0.02800
C447        C  0.76988826  0.49218723  0.75474437    -0.11200
H448        H  0.80422367  0.44230738  0.73144668     0.08400
H449        H  0.75722594  0.44620168  0.79826178     0.06000
H450        H  0.76651109  0.51222771  0.75150061     0.05800
C451        C  0.22847518  0.27733403  0.97668848     0.02900
C452        C  0.23247150  0.25098106  0.97253816    -0.13300
C453        C  0.25740417  0.24091011  0.97317085     0.00400
C454        C  0.27795929  0.25706391  0.97792249    -0.11800
C455        C  0.27450394  0.28299781  0.98220746     0.02800
C456        C  0.24975192  0.29307407  0.98149614    -0.11200
H457        H  0.21646294  0.23852817  0.96885599     0.08400
H458        H  0.29706104  0.24921978  0.97792062     0.06000
H459        H  0.24703991  0.31325522  0.98461812     0.05800
O460        O  0.52078910  0.45317079  0.08468762    -0.86800
O461        O  0.53046822  0.45329409  0.94014889    -0.86900
O462        O  0.48503931  0.42202717  0.01060186    -0.88600
O463        O  0.56756311  0.42378298  0.01793162    -0.87400
O464        O  0.59852859  0.45428042  0.02212826    -0.86900
O465        O  0.45446018  0.45291282  0.00697626    -0.88300
O466        O  0.52845682  0.42199393  0.97045628    -0.86800
O467        O  0.52417779  0.42199922  0.05434565    -0.86400
Zr468      Zr  0.52619152  0.44320267  0.01236941     2.84300
O469        O  0.55417844  0.46901223  0.98874925    -1.08400
O470        O  0.49771995  0.46827712  0.03583121    -1.09100
C471        C  0.52245749  0.42963076  0.07780581     1.06300
C472        C  0.52955402  0.42966084  0.94699242     1.06300
C473        C  0.46172856  0.42957428  0.00847782     1.09300
C474        C  0.59067528  0.43093939  0.02220619     1.07100
H475        H  0.49267023  0.45813033  0.97322576     0.32600
O476        O  0.50236768  0.46871077  0.98469396    -1.29300
H477        H  0.55883713  0.45932576  0.05177623     0.32300
O478        O  0.54918029  0.46956540  0.03998735    -1.31000
O479        O  0.53229811  0.53605866  0.94062929    -0.86800
O480        O  0.51913321  0.53508494  0.08532488    -0.88300
O481        O  0.45731381  0.49471254  0.96450553    -0.86800
O482        O  0.60186628  0.49717931  0.97631584    -0.86900
O483        O  0.59429803  0.49575480  0.06027715    -0.86600
O484        O  0.44930556  0.49316056  0.04756135    -0.86400
O485        O  0.48209697  0.56625372  0.00981292    -0.86800
O486        O  0.56409202  0.56756038  0.02172778    -0.86200
O487        O  0.45234534  0.53445074  0.00725276    -0.87300
O488        O  0.59557976  0.53744511  0.02475031    -0.86500
O489        O  0.49062295  0.49539867  0.93629749    -0.86900
O490        O  0.47738876  0.49337658  0.08094478    -0.86600
O491        O  0.56025887  0.49634010  0.08773818    -0.86200
O492        O  0.57274703  0.49538159  0.94383283    -0.86600
O493        O  0.52944402  0.56745650  0.97086185    -0.86900
O494        O  0.52134029  0.56663496  0.05527681    -0.88300
Zr495      Zr  0.52989626  0.49477653  0.96146633     2.83100
Zr496      Zr  0.52069224  0.49438568  0.06350974     2.83500
Zr497      Zr  0.47437794  0.49416314  0.00809958     2.84100
Zr498      Zr  0.57723069  0.49543447  0.01668977     2.83400
Zr499      Zr  0.52418858  0.54643887  0.01273237     2.84200
O500        O  0.54796258  0.52014576  0.03966885    -1.08800
O501        O  0.50150824  0.52039338  0.98451742    -1.08300
C502        C  0.53213004  0.55965471  0.94752315     1.06300
C503        C  0.51995229  0.55868472  0.07865567     1.08900
C504        C  0.46654869  0.49518291  0.94161994     1.06500
C505        C  0.59581103  0.49667897  0.95230173     1.06900
C506        C  0.58438888  0.49644253  0.08286541     1.06400
C507        C  0.45454460  0.49305322  0.07166124     1.06000
C508        C  0.45890961  0.55804823  0.00815870     1.06400
C509        C  0.58715042  0.56051001  0.02637497     1.05900
H510        H  0.48519413  0.53050987  0.04613009     0.32600
O511        O  0.49685297  0.52025954  0.03625840    -1.29900
H512        H  0.56437533  0.53203272  0.97995580     0.32600
O513        O  0.55297265  0.52115683  0.98934815    -1.31300
C514        C  0.71479532  0.76628147  0.97908676     0.02900
C515        C  0.73457621  0.75441082  0.96511079    -0.13300
C516        C  0.74568689  0.73172021  0.97432486     0.00400
C517        C  0.73628535  0.72080357  0.99672974    -0.11800
C518        C  0.71654026  0.73217731  0.01062226     0.02800
C519        C  0.70654104  0.75535916  0.00202692    -0.11200
H520        H  0.74092682  0.76247842  0.94724964     0.08400
H521        H  0.74382504  0.70256543  0.00263175     0.06000
H522        H  0.69121424  0.76437989  0.01248327     0.05800
C523        C  0.25756611  0.74650667  0.96349567     0.02900
C524        C  0.23226218  0.73752451  0.96205683    -0.13300
C525        C  0.22737019  0.71118533  0.96441842     0.00400
C526        C  0.24779151  0.69434609  0.96828022    -0.11800
C527        C  0.27283887  0.70335132  0.96964894     0.02800
C528        C  0.27747290  0.72931314  0.96718004    -0.11200
H529        H  0.21668581  0.75077097  0.95951758     0.08400
H530        H  0.24413167  0.67415657  0.97025616     0.06000
H531        H  0.29679935  0.73641283  0.96896755     0.05800
C532        C  0.74647090  0.25712744  0.96990136     0.02900
C533        C  0.73730548  0.26582322  0.99336568    -0.13300
C534        C  0.71673495  0.25393789  0.00551958     0.00400
C535        C  0.70639937  0.23193134  0.99462662    -0.11800
C536        C  0.71442076  0.22330762  0.97068768     0.02800
C537        C  0.73455145  0.23606016  0.95806800    -0.11200
H538        H  0.74522103  0.28320541  0.00113775     0.08400
H539        H  0.69065211  0.22238667  0.00393592     0.06000
H540        H  0.74056299  0.22995198  0.93932160     0.05800
C541        C  0.70299467  0.26756826  0.02616382    -0.03600
C542        C  0.71618635  0.28375460  0.04299129    -0.09400
C543        C  0.70320947  0.30294491  0.05603643    -0.17100
C544        C  0.67692676  0.30565468  0.05289994     0.25100
C545        C  0.66327330  0.28759596  0.03890898    -0.18700
C546        C  0.67619214  0.26864523  0.02560546    -0.07600
C547        C  0.66499576  0.32953269  0.05842784    -0.14100
C548        C  0.65402660  0.34951376  0.05658224    -0.13800
C549        C  0.63880065  0.37057330  0.04828977     0.25000
C550        C  0.61543419  0.36531470  0.03683251    -0.19200
C551        C  0.60056185  0.38495058  0.02730512    -0.07700
C552        C  0.60867410  0.41040756  0.02917911    -0.03800
C553        C  0.63257639  0.41560897  0.04021318    -0.09100
C554        C  0.64764442  0.39569189  0.04964540    -0.16700
H555        H  0.73674008  0.28299615  0.04440066     0.11400
H556        H  0.71393579  0.31688590  0.06679794     0.10700
H557        H  0.64291130  0.28964487  0.03620212     0.10700
H558        H  0.66527643  0.25674156  0.01281411     0.11200
H559        H  0.60866101  0.34590843  0.03521479     0.11200
H560        H  0.58237913  0.38009388  0.01887721     0.11200
H561        H  0.63930936  0.43498047  0.04210687     0.11400
H562        H  0.66600979  0.39986172  0.05806696     0.10200
C563        C  0.29440118  0.68621922  0.97501746    -0.03600
C564        C  0.31706108  0.68837519  0.96092664    -0.09400
C565        C  0.33843531  0.67414312  0.96761082    -0.17100
C566        C  0.33739875  0.65768593  0.98846456     0.25100
C567        C  0.31480505  0.65514088  0.00237921    -0.18700
C568        C  0.29334073  0.66930957  0.99564966    -0.07600
C569        C  0.35935483  0.64292295  0.99510335    -0.14100
C570        C  0.37741448  0.62960021  0.99953875    -0.13800
C571        C  0.39798868  0.61208751  0.00326670     0.25000
C572        C  0.39264531  0.58620490  0.00578686    -0.19200
C573        C  0.41247459  0.56872012  0.00774875    -0.07700
C574        C  0.43802783  0.57690511  0.00717401    -0.03800
C575        C  0.44320447  0.60307349  0.00517641    -0.09100
C576        C  0.42325485  0.62056124  0.00315812    -0.16700
H577        H  0.31826017  0.70128236  0.94491448     0.11400
H578        H  0.35578933  0.67607162  0.95661764     0.10700
H579        H  0.31384651  0.64236022  0.01850962     0.10700
H580        H  0.27619540  0.66766970  0.00699343     0.11200
H581        H  0.37312991  0.57948488  0.00583913     0.11200
H582        H  0.40771706  0.54875829  0.00944464     0.11200
H583        H  0.46261915  0.60999980  0.00472399     0.11400
H584        H  0.42753616  0.64060582  0.00112620     0.10200
C585        C  0.60481141  0.58043604  0.03554517    -0.03600
C586        C  0.62814495  0.57391039  0.04701434    -0.09400
C587        C  0.64378101  0.59273517  0.05751882    -0.17100
C588        C  0.63622285  0.61822086  0.05676117     0.25100
C589        C  0.61309857  0.62487202  0.04537876    -0.18700
C590        C  0.59747305  0.60616740  0.03489682    -0.07600
C591        C  0.65309964  0.63807865  0.06495723    -0.14100
C592        C  0.66603873  0.65690563  0.06637981    -0.13800
C593        C  0.67885285  0.68008331  0.05985744     0.25000
C594        C  0.66482084  0.69894981  0.04747553    -0.19200
C595        C  0.67723704  0.71758978  0.03331077    -0.07700
C596        C  0.70397581  0.71768593  0.03146941    -0.03800
C597        C  0.71796508  0.70049216  0.04658354    -0.09100
C598        C  0.70544204  0.68151468  0.06040874    -0.16700
H599        H  0.63418449  0.55426399  0.04815737     0.11400
H600        H  0.66183779  0.58745333  0.06596043     0.10700
H601        H  0.60729113  0.64461394  0.04429236     0.10700
H602        H  0.57961537  0.61190574  0.02633906     0.11200
H603        H  0.64421784  0.69785945  0.04675451     0.11200
H604        H  0.66571377  0.73026362  0.02190928     0.11200
H605        H  0.73857955  0.70050787  0.04622273     0.11400
H606        H  0.71650657  0.66694472  0.06988457     0.10200
C607        C  0.29719860  0.29910147  0.98702655    -0.03600
C608        C  0.29995435  0.32288288  0.97515926    -0.09400
C609        C  0.32221785  0.33707212  0.97862976    -0.17100
C610        C  0.34185664  0.32761998  0.99396710     0.25100
C611        C  0.33930860  0.30403413  0.00580939    -0.18700
C612        C  0.31710317  0.28991093  0.00247281    -0.07600
C613        C  0.36433570  0.34242588  0.99816430    -0.14100
C614        C  0.38247398  0.35587196  0.00165268    -0.13800
C615        C  0.40253637  0.37398030  0.00469159     0.25000
C616        C  0.42784076  0.36607299  0.00726638    -0.19200
C617        C  0.44730256  0.38412782  0.00871158    -0.07700
C618        C  0.44149389  0.41020684  0.00758359    -0.03800
C619        C  0.41589375  0.41782886  0.00537925    -0.09100
C620        C  0.39659342  0.39981269  0.00395966    -0.16700
H621        H  0.28516643  0.33022888  0.96283537     0.11400
H622        H  0.32413009  0.35537015  0.96936247     0.10700
H623        H  0.35440027  0.29663902  0.01776533     0.10700
H624        H  0.31546231  0.27177711  0.01207001     0.11200
H625        H  0.43253071  0.34602755  0.00781238     0.11200
H626        H  0.46680733  0.37767868  0.01045799     0.11200
H627        H  0.41067895  0.43772788  0.00451657     0.11400
H628        H  0.37702617  0.40604080  0.00192986     0.10200
C629        C  0.74093090  0.49264993  0.79422701    -0.03600
C630        C  0.74933526  0.49599568  0.81946847    -0.09400
C631        C  0.73196955  0.50067387  0.83924105    -0.17100
C632        C  0.70577504  0.50200149  0.83427053     0.25100
C633        C  0.69734184  0.49990933  0.80894381    -0.18700
C634        C  0.71477092  0.49521555  0.78908703    -0.07600
C635        C  0.68767131  0.50343006  0.85531752    -0.14100
C636        C  0.67265665  0.50312958  0.87299256    -0.13800
C637        C  0.65378718  0.50152394  0.89333640     0.25000
C638        C  0.66044113  0.50529273  0.91900635    -0.19200
C639        C  0.64190802  0.50346656  0.93838132    -0.07700
C640        C  0.61633041  0.49787639  0.93240399    -0.03800
C641        C  0.61002270  0.49399844  0.90654519    -0.09100
C642        C  0.62846723  0.49577311  0.88736165    -0.16700
H643        H  0.76925927  0.49334931  0.82410679     0.11400
H644        H  0.73891227  0.50206551  0.85860962     0.10700
H645        H  0.67717645  0.50071733  0.80467767     0.10700
H646        H  0.70765538  0.49191052  0.77002116     0.11200
H647        H  0.67994860  0.50968929  0.92406369     0.11200
H648        H  0.64754811  0.50667178  0.95794439     0.11200
H649        H  0.59067230  0.48956639  0.90096817     0.11400
H650        H  0.62289391  0.49266095  0.86774732     0.10200
C651        C  0.31587370  0.49095137  0.78902675    -0.03600
C652        C  0.31826397  0.51106950  0.80658959    -0.09400
C653        C  0.33926861  0.51255843  0.82300049    -0.17100
C654        C  0.35830697  0.49391205  0.82231305     0.25100
C655        C  0.35663166  0.47438065  0.80411065    -0.18700
C656        C  0.33560980  0.47295067  0.78752178    -0.07600
C657        C  0.37856973  0.49416207  0.84123762    -0.14100
C658        C  0.39450013  0.49450326  0.85803022    -0.13800
C659        C  0.41273378  0.49492550  0.87890538     0.25000
C660        C  0.43901699  0.49458199  0.87414351    -0.19200
C661        C  0.45651872  0.49479585  0.89439326    -0.07700
C662        C  0.44806663  0.49533551  0.91989278    -0.03800
C663        C  0.42160564  0.49580593  0.92442756    -0.09100
C664        C  0.40418211  0.49560307  0.90417509    -0.16700
H665        H  0.30319667  0.52501769  0.80839929     0.11400
H666        H  0.34016015  0.52777387  0.83688832     0.10700
H667        H  0.37110802  0.45973699  0.80333885     0.10700
H668        H  0.33401896  0.45697556  0.77460307     0.11200
H669        H  0.44601498  0.49407864  0.85475236     0.11200
H670        H  0.47666991  0.49442085  0.89003490     0.11200
H671        H  0.41427240  0.49627346  0.94368288     0.11400
H672        H  0.38396504  0.49591067  0.90827363     0.10200
C673        C  0.28614227  0.49262420  0.20500566    -0.03600
C674        C  0.29345465  0.47099069  0.19104065    -0.09400
C675        C  0.31594201  0.47088279  0.17670662    -0.17100
C676        C  0.33160463  0.49242699  0.17596102     0.25100
C677        C  0.32515445  0.51365216  0.19092727    -0.18700
C678        C  0.30256684  0.51375095  0.20540144    -0.07600
C679        C  0.35329536  0.49303196  0.15871052    -0.14100
C680        C  0.37076470  0.49295180  0.14352137    -0.13800
C681        C  0.39170342  0.49269470  0.12535308     0.25000
C682        C  0.41692464  0.49417080  0.13392543    -0.19200
C683        C  0.43723074  0.49417379  0.11655758    -0.07700
C684        C  0.43278962  0.49270785  0.09011662    -0.03800
C685        C  0.40734321  0.49109674  0.08164548    -0.09100
C686        C  0.38703851  0.49106289  0.09909453    -0.16700
H687        H  0.28096640  0.45461575  0.19014235     0.11400
H688        H  0.32056308  0.45430798  0.16535835     0.10700
H689        H  0.33703242  0.53049008  0.19061252     0.10700
H690        H  0.29715195  0.53083457  0.21556844     0.11200
H691        H  0.42093548  0.49540538  0.15411450     0.11200
H692        H  0.45644731  0.49545747  0.12391613     0.11200
H693        H  0.40307375  0.48988597  0.06151685     0.11400
H694        H  0.36768050  0.48984194  0.09206659     0.10200
C695        C  0.60173765  0.49726690  0.10520403    -0.03600
C696        C  0.59343949  0.50829300  0.12819454    -0.09400
C697        C  0.60895659  0.50798310  0.14985685    -0.17100
C698        C  0.63297485  0.49647607  0.14904059     0.25100
C699        C  0.64158074  0.48576613  0.12611880    -0.18700
C700        C  0.62614716  0.48627679  0.10429655    -0.07600
C701        C  0.64890659  0.49612225  0.17156736    -0.14100
C702        C  0.66297514  0.49663865  0.18984793    -0.13800
C703        C  0.68169805  0.49842658  0.21005177     0.25000
C704        C  0.69846955  0.47820762  0.21457591    -0.19200
C705        C  0.71950407  0.48148201  0.23070320    -0.07700
C706        C  0.72410301  0.50502888  0.24253591    -0.03800
C707        C  0.70636356  0.52476098  0.23912371    -0.09100
C708        C  0.68522475  0.52142609  0.22311325    -0.16700
H709        H  0.57487213  0.51717617  0.12943812     0.11400
H710        H  0.60213071  0.51660851  0.16730298     0.10700
H711        H  0.66018252  0.47691940  0.12513917     0.10700
H712        H  0.63303107  0.47755160  0.08692857     0.11200
H713        H  0.69620927  0.46041360  0.20441893     0.11200
H714        H  0.73341948  0.46635620  0.23216023     0.11200
H715        H  0.70998952  0.54336405  0.24720503     0.11400
H716        H  0.67258124  0.53732482  0.21965271     0.10200
C717        C  0.89181272  0.58113391  0.96234444    -0.03600
C718        C  0.86541274  0.57628811  0.96169896    -0.09400
C719        C  0.84785224  0.59630872  0.95874665    -0.17100
C720        C  0.85630248  0.62154559  0.95629201     0.25100
C721        C  0.88250295  0.62645851  0.95675616    -0.18700
C722        C  0.90002768  0.60657175  0.95973437    -0.07600
C723        C  0.83831131  0.64250671  0.95380533    -0.14100
C724        C  0.82350159  0.66025495  0.95255068    -0.13800
C725        C  0.80490637  0.68082882  0.95272868     0.25000
C726        C  0.81106227  0.70475015  0.96296043    -0.19200
C727        C  0.79194261  0.72301530  0.96715863    -0.07700
C728        C  0.76640745  0.71765614  0.96112868    -0.03800
C729        C  0.76069544  0.69438133  0.94920632    -0.09100
C730        C  0.77977713  0.67617941  0.94498497    -0.16700
H731        H  0.85830124  0.55705848  0.96358368     0.11400
H732        H  0.82766257  0.59208610  0.95847805     0.10700
H733        H  0.88945271  0.64576486  0.95490556     0.10700
H734        H  0.92011327  0.61123077  0.95994510     0.11200
H735        H  0.83034517  0.70874077  0.96910910     0.11200
H736        H  0.79674263  0.74046068  0.97702611     0.11200
H737        H  0.74109468  0.68947712  0.94504576     0.11400
H738        H  0.77459963  0.65785864  0.93709520     0.10200
C739        C  0.89057093  0.40954842  0.96107315    -0.03600
C740        C  0.89778225  0.38374572  0.95990238    -0.09400
C741        C  0.87971034  0.36466355  0.95536123    -0.17100
C742        C  0.85403201  0.37084807  0.95174784     0.25100
C743        C  0.84668057  0.39649095  0.95224756    -0.18700
C744        C  0.86476510  0.41567646  0.95683410    -0.07600
C745        C  0.83530965  0.35070592  0.94877857    -0.14100
C746        C  0.82038621  0.33308241  0.94797117    -0.13800
C747        C  0.80303652  0.31158937  0.94941224     0.25000
C748        C  0.80968539  0.29017546  0.96382965    -0.19200
C749        C  0.79187440  0.27078643  0.96820950    -0.07700
C750        C  0.76714773  0.27234760  0.95807060    -0.03800
C751        C  0.76096003  0.29322481  0.94254440    -0.09100
C752        C  0.77879110  0.31269476  0.93821814    -0.16700
H753        H  0.91743500  0.37818199  0.96268057     0.11400
H754        H  0.88576731  0.34497856  0.95498413     0.10700
H755        H  0.82691960  0.40165931  0.94938895     0.10700
H756        H  0.85850394  0.43528397  0.95711016     0.11200
H757        H  0.82824304  0.28905191  0.97277194     0.11200
H758        H  0.79682156  0.25538630  0.98095506     0.11200
H759        H  0.74176746  0.29534916  0.93530312     0.11400
H760        H  0.77323455  0.32916778  0.92717906     0.10200
C761        C  0.20129413  0.70037066  0.96412068    -0.03600
C762        C  0.19178920  0.68887544  0.98629699    -0.09400
C763        C  0.17010814  0.67341507  0.98536607    -0.17100
C764        C  0.15763214  0.66903065  0.96220637     0.25100
C765        C  0.16634657  0.68137482  0.94015706    -0.18700
C766        C  0.18806852  0.69699775  0.94110309    -0.07600
C767        C  0.13696359  0.65073034  0.96104511    -0.14100
C768        C  0.12031814  0.63472597  0.96099455    -0.13800
C769        C  0.10049094  0.61549257  0.96169084     0.25000
C770        C  0.10674349  0.58958125  0.96160076    -0.19200
C771        C  0.08754355  0.57105269  0.96287398    -0.07700
C772        C  0.06165124  0.57808703  0.96434751    -0.03800
C773        C  0.05559467  0.60418783  0.96414757    -0.09100
C774        C  0.07482656  0.62265925  0.96287845    -0.16700
H775        H  0.20193290  0.69090176  0.00413890     0.11400
H776        H  0.16367505  0.66406793  0.00257120     0.10700
H777        H  0.15694725  0.67816764  0.92208276     0.10700
H778        H  0.19535710  0.70524239  0.92367927     0.11200
H779        H  0.12648648  0.58366974  0.96069063     0.11200
H780        H  0.09303897  0.55121202  0.96284535     0.11200
H781        H  0.03597255  0.61041238  0.96518062     0.11400
H782        H  0.06965070  0.64259262  0.96297969     0.10200
C783        C  0.20253973  0.28913772  0.97587621    -0.03600
C784        C  0.19539071  0.30680457  0.99470864    -0.09400
C785        C  0.17276652  0.32071706  0.99258749    -0.17100
C786        C  0.15668592  0.31742916  0.97159372     0.25100
C787        C  0.16309730  0.29914184  0.95311035    -0.18700
C788        C  0.18580087  0.28498063  0.95531747    -0.07600
C789        C  0.13443962  0.33379056  0.96903764    -0.14100
C790        C  0.11718630  0.34922743  0.96881910    -0.13800
C791        C  0.09774265  0.36898952  0.96965642     0.25000
C792        C  0.07198408  0.36279918  0.97306787    -0.19200
C793        C  0.05332037  0.38195431  0.97354110    -0.07700
C794        C  0.06002477  0.40779532  0.97069862    -0.03800
C795        C  0.08602367  0.41383900  0.96784082    -0.09100
C796        C  0.10462323  0.39465504  0.96730706    -0.16700
H797        H  0.20767555  0.31028513  0.01089745     0.11400
H798        H  0.16812219  0.33458959  0.00711792     0.10700
H799        H  0.15091637  0.29625432  0.93672120     0.10700
H800        H  0.19082265  0.27163926  0.94042997     0.11200
H801        H  0.06627043  0.34312819  0.97523094     0.11200
H802        H  0.03360573  0.37646674  0.97607364     0.11200
H803        H  0.09203952  0.43341699  0.96575924     0.11400
H804        H  0.12443648  0.39987991  0.96491893     0.10200
C805        C  0.89650774  0.46114422  0.89033543    -0.03600
C806        C  0.87111883  0.45596981  0.89725459    -0.09400
C807        C  0.85741519  0.43666002  0.88504017    -0.17100
C808        C  0.86894745  0.42204978  0.86597174     0.25100
C809        C  0.89391687  0.42746665  0.85847069    -0.18700
C810        C  0.90756579  0.44688350  0.87046473    -0.07600
C811        C  0.85414832  0.40400787  0.85166459    -0.14100
C812        C  0.84093212  0.39438988  0.83559991    -0.13800
C813        C  0.82575702  0.39367733  0.81293042     0.25000
C814        C  0.83686839  0.40341547  0.79086898    -0.19200
C815        C  0.82188791  0.41589443  0.77297700    -0.07700
C816        C  0.79542167  0.41848171  0.77682405    -0.03800
C817        C  0.78402569  0.40394199  0.79632334    -0.09100
C818        C  0.79921915  0.39214738  0.81474565    -0.16700
H819        H  0.86206600  0.46637005  0.91257264     0.11400
H820        H  0.83783663  0.43310640  0.89049796     0.10700
H821        H  0.90284443  0.41671267  0.84329245     0.10700
H822        H  0.92714974  0.44999000  0.86483027     0.11200
H823        H  0.85741289  0.40474022  0.78926463     0.11200
H824        H  0.83180719  0.42634016  0.75831342     0.11200
H825        H  0.76361308  0.40419130  0.79915235     0.11400
H826        H  0.79034310  0.38448271  0.83170073     0.10200
C827        C  0.06245046  0.49413332  0.88764026    -0.03600
C828        C  0.08463732  0.50758509  0.89424059    -0.09400
C829        C  0.10667529  0.50514178  0.87975046    -0.17100
C830        C  0.10689307  0.48914766  0.85853351     0.25100
C831        C  0.08457293  0.47651960  0.85107812    -0.18700
C832        C  0.06229594  0.47910320  0.86554441    -0.07600
C833        C  0.13051794  0.48483434  0.84551419    -0.14100
C834        C  0.15115444  0.48184838  0.83602313    -0.13800
C835        C  0.17591685  0.47939084  0.82473939     0.25000
C836        C  0.18103501  0.45920796  0.80817426    -0.19200
C837        C  0.20423765  0.45820771  0.79524645    -0.07700
C838        C  0.22257547  0.47735187  0.79887048    -0.03800
C839        C  0.21776831  0.49692164  0.81643177    -0.09100
C840        C  0.19449110  0.49795460  0.82926312    -0.16700
H841        H  0.08514283  0.51941499  0.91113622     0.11400
H842        H  0.12378994  0.51508156  0.88559707     0.10700
H843        H  0.08462494  0.46409667  0.83462155     0.10700
H844        H  0.04547646  0.46839612  0.86027739     0.11200
H845        H  0.16681521  0.44468973  0.80466871     0.11200
H846        H  0.20762773  0.44288131  0.78188587     0.11200
H847        H  0.23149343  0.51203482  0.81929224     0.11400
H848        H  0.19067154  0.51364609  0.84208159     0.10200
C849        C  0.06170643  0.49152987  0.05392980    -0.03600
C850        C  0.05573907  0.49327925  0.07998309    -0.09400
C851        C  0.07489408  0.49157356  0.09838049    -0.17100
C852        C  0.10026751  0.48803700  0.09107244     0.25100
C853        C  0.10644782  0.48611450  0.06523823    -0.18700
C854        C  0.08733521  0.48784902  0.04677837    -0.07600
C855        C  0.11995606  0.48702598  0.11011293    -0.14100
C856        C  0.13622791  0.48711549  0.12630925    -0.13800
C857        C  0.15558267  0.48847678  0.14566591     0.25000
C858        C  0.17602750  0.47139547  0.14548894    -0.19200
C859        C  0.19530133  0.47342639  0.16376297    -0.07700
C860        C  0.19421652  0.49247295  0.18252773    -0.03800
C861        C  0.17347633  0.50937068  0.18272408    -0.09100
C862        C  0.15431853  0.50740334  0.16436806    -0.16700
H863        H  0.03627847  0.49604997  0.08619952     0.11400
H864        H  0.06991385  0.49313441  0.11833218     0.10700
H865        H  0.12603847  0.48338873  0.05935460     0.10700
H866        H  0.09266856  0.48624586  0.02692962     0.11200
H867        H  0.17714879  0.45662381  0.13114918     0.11200
H868        H  0.21090409  0.45996942  0.16342867     0.11200
H869        H  0.17227819  0.52429246  0.19689516     0.11400
H870        H  0.13861783  0.52076113  0.16464873     0.10200
C871        C  0.89211450  0.50017914  0.05542670    -0.03600
C872        C  0.86777262  0.51046993  0.05094827    -0.09400
C873        C  0.85248190  0.51808647  0.07146206    -0.17100
C874        C  0.86144682  0.51529082  0.09642266     0.25100
C875        C  0.88481608  0.50353575  0.10093503    -0.18700
C876        C  0.89999323  0.49594718  0.08065990    -0.07600
C877        C  0.84761763  0.52491989  0.11786689    -0.14100
C878        C  0.83921830  0.53067502  0.13835981    -0.13800
C879        C  0.83090475  0.53317877  0.16421962     0.25000
C880        C  0.84055450  0.51643299  0.18251874    -0.19200
C881        C  0.82936632  0.51512846  0.20656185    -0.07700
C882        C  0.80836687  0.53058225  0.21245350    -0.03800
C883        C  0.80030510  0.54894770  0.19473024    -0.09100
C884        C  0.81147565  0.55016000  0.17063756    -0.16700
H885        H  0.86117667  0.51389166  0.03172526     0.11400
H886        H  0.83419404  0.52689935  0.06785471     0.10700
H887        H  0.89172842  0.50097791  0.12020557     0.10700
H888        H  0.91843902  0.48772888  0.08481536     0.11200
H889        H  0.85569171  0.50328264  0.17768595     0.11200
H890        H  0.83581710  0.50068074  0.21974306     0.11200
H891        H  0.78432533  0.56125155  0.19898818     0.11400
H892        H  0.80403669  0.56331625  0.15663818     0.10200
C893        C  0.52949397  0.41011059  0.92614465    -0.03600
C894        C  0.52757590  0.38389644  0.93147604    -0.09400
C895        C  0.52732767  0.36584675  0.91167970    -0.17100
C896        C  0.52896791  0.37358007  0.88616220     0.25100
C897        C  0.53078262  0.39957439  0.88069933    -0.18700
C898        C  0.53101568  0.41761325  0.90039268    -0.07600
C899        C  0.52804789  0.35508149  0.86553962    -0.14100
C900        C  0.52609574  0.34004252  0.84805998    -0.13800
C901        C  0.52153393  0.32215252  0.82739954     0.25000
C902        C  0.49930294  0.32422803  0.81278867    -0.19200
C903        C  0.49309109  0.30550872  0.79482326    -0.07700
C904        C  0.50910871  0.28441230  0.79092764    -0.03800
C905        C  0.53207319  0.28306067  0.80463550    -0.09100
C906        C  0.53820300  0.30176330  0.82280914    -0.16700
H907        H  0.52617759  0.37729919  0.95093938     0.11400
H908        H  0.52573282  0.34584259  0.91630064     0.10700
H909        H  0.53189901  0.40596887  0.86113335     0.10700
H910        H  0.53235697  0.43752004  0.89534957     0.11200
H911        H  0.48618455  0.33979082  0.81603264     0.11200
H912        H  0.47509592  0.30680486  0.78482755     0.11200
H913        H  0.54443319  0.26672326  0.80246306     0.11400
H914        H  0.55543384  0.29976701  0.83396075     0.10200
C915        C  0.53069335  0.70295979  0.79036901    -0.03600
C916        C  0.51571240  0.68081692  0.79169990    -0.09400
C917        C  0.52105698  0.66181383  0.80959710    -0.17100
C918        C  0.54132736  0.66466984  0.82671421     0.25100
C919        C  0.55718112  0.68608705  0.82464248    -0.18700
C920        C  0.55193281  0.70509522  0.80655265    -0.07600
C921        C  0.54414156  0.64684317  0.84766886    -0.14100
C922        C  0.54420659  0.63218392  0.86552419    -0.13800
C923        C  0.54232004  0.61433083  0.88656707     0.25000
C924        C  0.54614470  0.58834576  0.88230916    -0.19200
C925        C  0.54287682  0.57081100  0.90210523    -0.07700
C926        C  0.53574020  0.57882774  0.92676240    -0.03800
C927        C  0.53230020  0.60505421  0.93100825    -0.09100
C928        C  0.53549573  0.62261190  0.91106104    -0.16700
H929        H  0.49898553  0.67891134  0.77978247     0.11400
H930        H  0.50856739  0.64546647  0.81090849     0.10700
H931        H  0.57286731  0.68868635  0.83778066     0.10700
H932        H  0.56339439  0.72221594  0.80637618     0.11200
H933        H  0.55138030  0.58154656  0.86355148     0.11200
H934        H  0.54594417  0.55087095  0.89798897     0.11200
H935        H  0.52684833  0.61198698  0.94963637     0.11400
H936        H  0.53235761  0.64264125  0.91469358     0.10200
C937        C  0.52552266  0.70758466  0.23080680    -0.03600
C938        C  0.50770264  0.68774204  0.23269452    -0.09400
C939        C  0.50995068  0.66600805  0.21730648    -0.17100
C940        C  0.52996621  0.66386278  0.19973703     0.25100
C941        C  0.54891759  0.68264090  0.19929512    -0.18700
C942        C  0.54672426  0.70431025  0.21472598    -0.07600
C943        C  0.52925217  0.64432707  0.18016867    -0.14100
C944        C  0.52728865  0.62932708  0.16269204    -0.13800
C945        C  0.52426541  0.61203641  0.14129736     0.25000
C946        C  0.53073318  0.61972960  0.11654707    -0.19200
C947        C  0.52851682  0.60277625  0.09596760    -0.07700
C948        C  0.51990919  0.57772290  0.09980330    -0.03800
C949        C  0.51281080  0.57040494  0.12466685    -0.09100
C950        C  0.51492056  0.58739793  0.14514408    -0.16700
H951        H  0.49076446  0.69014672  0.24420986     0.11400
H952        H  0.49507200  0.65174779  0.21782645     0.10700
H953        H  0.56444482  0.68142345  0.18576717     0.10700
H954        H  0.56024220  0.71967984  0.21226025     0.11200
H955        H  0.53785219  0.63876250  0.11318616     0.11200
H956        H  0.53425554  0.60905612  0.07720223     0.11200
H957        H  0.50591227  0.55136487  0.12841003     0.11400
H958        H  0.50958639  0.58116662  0.16406008     0.10200
C959        C  0.52856228  0.27844592  0.22885846    -0.03600
C960        C  0.50790170  0.29541844  0.22942278    -0.09400
C961        C  0.50771130  0.31699212  0.21362491    -0.17100
C962        C  0.52814841  0.32179996  0.19705156     0.25100
C963        C  0.54961164  0.30601417  0.19798283    -0.18700
C964        C  0.54980535  0.28451563  0.21370804    -0.07600
C965        C  0.52623682  0.34114234  0.17738896    -0.14100
C966        C  0.52492342  0.35620349  0.15992155    -0.13800
C967        C  0.52382615  0.37434991  0.13907495     0.25000
C968        C  0.52371690  0.36619214  0.11360176    -0.19200
C969        C  0.52320976  0.38397345  0.09359894    -0.07700
C970        C  0.52270418  0.41027955  0.09872754    -0.03800
C971        C  0.52274149  0.41816871  0.12442844    -0.09100
C972        C  0.52328800  0.40042717  0.14429411    -0.16700
H973        H  0.49104934  0.29083334  0.24038561     0.11400
H974        H  0.49096759  0.32900513  0.21320296     0.10700
H975        H  0.56557863  0.30940408  0.18537119     0.10700
H976        H  0.56567640  0.27141994  0.21245410     0.11200
H977        H  0.52415461  0.34607907  0.10917575     0.11200
H978        H  0.52324865  0.37711742  0.07416079     0.11200
H979        H  0.52249203  0.43816650  0.12931698     0.11400
H980        H  0.52342002  0.40711437  0.16380614     0.10200
C981        C  0.69883881  0.20288420  0.95887983    -0.03600
C982        C  0.67605125  0.20947380  0.94643802    -0.09400
C983        C  0.65665528  0.19139265  0.94286916    -0.17100
C984        C  0.65971185  0.16639905  0.95171054     0.25100
C985        C  0.68301358  0.15941394  0.96278835    -0.18700
C986        C  0.70234981  0.17752218  0.96648307    -0.07600
C987        C  0.63843936  0.14855247  0.95149338    -0.14100
C988        C  0.62096875  0.13339482  0.95299050    -0.13800
C989        C  0.60071621  0.11461122  0.95594894     0.25000
C990        C  0.57598827  0.12198494  0.96295264    -0.19200
C991        C  0.55667811  0.10372453  0.96632595    -0.07700
C992        C  0.56166769  0.07761663  0.96286333    -0.03800
C993        C  0.58663839  0.07040618  0.95591396    -0.09100
C994        C  0.60585927  0.08868834  0.95245703    -0.16700
H995        H  0.67251325  0.22907970  0.94122434     0.11400
H996        H  0.63879703  0.19726501  0.93439791     0.10700
H997        H  0.68573814  0.14026344  0.96983910     0.10700
H998        H  0.71932936  0.17215463  0.97687138     0.11200
H999        H  0.57160429  0.14189112  0.96589795     0.11200
H1000       H  0.53784052  0.11007691  0.97177134     0.11200
H1001       H  0.59136682  0.05058446  0.95297179     0.11400
H1002       H  0.62482040  0.08254870  0.94712810     0.10200
C1003       C  0.26477533  0.77360412  0.96239933    -0.03600
C1004       C  0.27945556  0.78203214  0.94168983    -0.09400
C1005       C  0.29443176  0.80393247  0.94375894    -0.17100
C1006       C  0.29499662  0.81767787  0.96658944     0.25100
C1007       C  0.27939534  0.81012393  0.98688868    -0.18700
C1008       C  0.26435555  0.78817915  0.98481288    -0.07600
C1009       C  0.31312127  0.83812161  0.96976808    -0.14100
C1010       C  0.32941759  0.85420356  0.97216995    -0.13800
C1011       C  0.34957561  0.87278628  0.97457260     0.25000
C1012       C  0.37474796  0.86612918  0.96877111    -0.19200
C1013       C  0.39425084  0.88425108  0.97046097    -0.07700
C1014       C  0.38887731  0.90943672  0.97788360    -0.03800
C1015       C  0.36351759  0.91583497  0.98395081    -0.09100
C1016       C  0.34407609  0.89764485  0.98235146    -0.16700
H1017       H  0.28082899  0.77054190  0.92461891     0.11400
H1018       H  0.30657545  0.80937611  0.92800408     0.10700
H1019       H  0.27985153  0.82042652  0.00474747     0.10700
H1020       H  0.25401899  0.78147683  0.00134169     0.11200
H1021       H  0.37928306  0.84696624  0.96269751     0.11200
H1022       H  0.41345140  0.87863805  0.96546610     0.11200
H1023       H  0.35863288  0.93496506  0.98979848     0.11400
H1024       H  0.32470603  0.90305149  0.98695483     0.10200
C1025       C  0.56007194  0.90967137  0.96310780    -0.03600
C1026       C  0.55658242  0.88407220  0.97010030    -0.09400
C1027       C  0.57684530  0.86668493  0.96842161    -0.17100
C1028       C  0.60082819  0.87453785  0.95956128     0.25100
C1029       C  0.60421327  0.89982692  0.95203763    -0.18700
C1030       C  0.58411070  0.91720226  0.95379824    -0.07600
C1031       C  0.62221981  0.85703467  0.95891155    -0.14100
C1032       C  0.64041803  0.84279922  0.95917325    -0.13800
C1033       C  0.66184215  0.82539317  0.96099210     0.25000
C1034       C  0.66228449  0.80292360  0.94658066    -0.19200
C1035       C  0.68128093  0.78458319  0.95071269    -0.07700
C1036       C  0.70006914  0.78838815  0.96939500    -0.03800
C1037       C  0.70023292  0.81146976  0.98294527    -0.09100
C1038       C  0.68138084  0.82989243  0.97864635    -0.16700
H1039       H  0.53840142  0.87761276  0.97737160     0.11400
H1040       H  0.57388552  0.84718967  0.97434774     0.10700
H1041       H  0.62254440  0.90624625  0.94508987     0.10700
H1042       H  0.58751040  0.93665821  0.94798047     0.11200
H1043       H  0.64729099  0.79904562  0.93295618     0.11200
H1044       H  0.68028015  0.76667141  0.94057652     0.11200
H1045       H  0.71412062  0.81459057  0.99786866     0.11400
H1046       H  0.68135317  0.84710304  0.98999155     0.10200
C1047       C  0.38920104  0.07840574  0.97706075    -0.03600
C1048       C  0.39425854  0.10427065  0.97220750    -0.09400
C1049       C  0.37426036  0.12197159  0.97052133    -0.17100
C1050       C  0.34887373  0.11419426  0.97369710     0.25100
C1051       C  0.34370245  0.08856984  0.97859330    -0.18700
C1052       C  0.36358112  0.07088426  0.98024769    -0.07600
C1053       C  0.32815311  0.13241112  0.97207989    -0.14100
C1054       C  0.31128814  0.14812344  0.97078238    -0.13800
C1055       C  0.29293098  0.16866600  0.96894049     0.25000
C1056       C  0.29410358  0.18535436  0.94823881    -0.19200
C1057       C  0.27963233  0.20767422  0.94817033    -0.07700
C1058       C  0.26376482  0.21379154  0.96885691    -0.03800
C1059       C  0.26122246  0.19615631  0.98878422    -0.09100
C1060       C  0.27571206  0.17366906  0.98879879    -0.16700
H1061       H  0.41361790  0.11079807  0.96942897     0.11400
H1062       H  0.37861358  0.14173188  0.96667397     0.10700
H1063       H  0.32423968  0.08219739  0.98110069     0.10700
H1064       H  0.35877760  0.05121449  0.98395215     0.11200
H1065       H  0.30736733  0.18189966  0.93282293     0.11200
H1066       H  0.28249242  0.22129934  0.93298241     0.11200
H1067       H  0.24975575  0.20078028  0.00528872     0.11400
H1068       H  0.27462456  0.16100414  0.00500803     0.10200
C1069       C  0.44828244  0.07729381  0.89393168    -0.03600
C1070       C  0.44877790  0.10318448  0.90063336    -0.09400
C1071       C  0.43719989  0.12129761  0.88513162    -0.17100
C1072       C  0.42484687  0.11391902  0.86274081     0.25100
C1073       C  0.42400738  0.08822433  0.85587968    -0.18700
C1074       C  0.43558763  0.06997164  0.87142792    -0.07600
C1075       C  0.41620047  0.13333570  0.84562434    -0.14100
C1076       C  0.41503618  0.15193183  0.83236609    -0.13800
C1077       C  0.42196506  0.17454329  0.81878101     0.25000
C1078       C  0.41985814  0.17557884  0.79227608    -0.19200
C1079       C  0.43299015  0.19429497  0.77865716    -0.07700
C1080       C  0.44896561  0.21170926  0.79139472    -0.03800
C1081       C  0.44921707  0.21163733  0.81820920    -0.09100
C1082       C  0.43572859  0.19325893  0.83174032    -0.16700
H1083       H  0.45815708  0.10952394  0.91786208     0.11400
H1084       H  0.43833897  0.14120176  0.89036924     0.10700
H1085       H  0.41480601  0.08236027  0.83837353     0.10700
H1086       H  0.43444456  0.05016191  0.86590989     0.11200
H1087       H  0.40941129  0.16104172  0.78204148     0.11200
H1088       H  0.43180318  0.19416336  0.75809186     0.11200
H1089       H  0.46147639  0.22433671  0.82882275     0.11400
H1090       H  0.43776773  0.19240599  0.85225560     0.10200
C1091       C  0.45805739  0.90824362  0.89181769    -0.03600
C1092       C  0.45185286  0.91451430  0.86652615    -0.09400
C1093       C  0.44277319  0.89589081  0.84983589    -0.17100
C1094       C  0.43969056  0.87087000  0.85825817     0.25100
C1095       C  0.44617309  0.86434922  0.88320823    -0.18700
C1096       C  0.45528868  0.88285161  0.89988992    -0.07600
C1097       C  0.43269927  0.85113422  0.84079310    -0.14100
C1098       C  0.43202152  0.83255691  0.82749527    -0.13800
C1099       C  0.43912401  0.80978883  0.81436207     0.25000
C1100       C  0.45241059  0.79124579  0.82796917    -0.19200
C1101       C  0.46640955  0.77281912  0.81509627    -0.07700
C1102       C  0.46720229  0.77263524  0.78833426    -0.03800
C1103       C  0.45141088  0.78962684  0.77484973    -0.09100
C1104       C  0.43774921  0.80841038  0.78782573    -0.16700
H1105       H  0.45368355  0.93384416  0.85970489     0.11400
H1106       H  0.43833111  0.90096301  0.83035640     0.10700
H1107       H  0.44438693  0.84487890  0.88971436     0.10700
H1108       H  0.45980402  0.87726740  0.91920476     0.11200
H1109       H  0.45381989  0.79237578  0.84852440     0.11200
H1110       H  0.47847461  0.76038796  0.82620668     0.11200
H1111       H  0.45108891  0.78960905  0.75424495     0.11400
H1112       H  0.42762560  0.82281118  0.77711942     0.10200
C1113       C  0.47700343  0.90823509  0.05880514    -0.03600
C1114       C  0.47954453  0.91451173  0.08475580    -0.09400
C1115       C  0.47914724  0.89552943  0.10338832    -0.17100
C1116       C  0.47613320  0.87000462  0.09646300     0.25100
C1117       C  0.47332774  0.86354069  0.07077446    -0.18700
C1118       C  0.47373553  0.88248396  0.05208103    -0.07600
C1119       C  0.47667479  0.85053579  0.11575523    -0.14100
C1120       C  0.47833925  0.83517289  0.13272391    -0.13800
C1121       C  0.48221917  0.81813533  0.15383070     0.25000
C1122       C  0.50223276  0.80062779  0.15307084    -0.19200
C1123       C  0.50773220  0.78578782  0.17437272    -0.07700
C1124       C  0.49331865  0.78825212  0.19683056    -0.03800
C1125       C  0.47283258  0.80544131  0.19729605    -0.09100
C1126       C  0.46729680  0.82026850  0.17585743    -0.16700
H1127       H  0.48198442  0.93407410  0.09070950     0.11400
H1128       H  0.48137364  0.90075934  0.12321835     0.10700
H1129       H  0.47099784  0.84385044  0.06516385     0.10700
H1130       H  0.47155421  0.87690809  0.03235793     0.11200
H1131       H  0.51402767  0.79890829  0.13623437     0.11200
H1132       H  0.52381473  0.77292500  0.17354729     0.11200
H1133       H  0.46127169  0.80750555  0.21424290     0.11400
H1134       H  0.45176247  0.83379109  0.17664985     0.10200
C1135       C  0.49085830  0.07657182  0.05887541    -0.03600
C1136       C  0.49383851  0.06889187  0.08437845    -0.09400
C1137       C  0.49980173  0.08658647  0.10322045    -0.17100
C1138       C  0.50289455  0.11220028  0.09695791     0.25100
C1139       C  0.50032412  0.12009415  0.07165064    -0.18700
C1140       C  0.49434970  0.10238039  0.05267912    -0.07600
C1141       C  0.50745630  0.13029426  0.11691954    -0.14100
C1142       C  0.50984882  0.14415524  0.13500681    -0.13800
C1143       C  0.51138045  0.15973341  0.15742346     0.25000
C1144       C  0.49255521  0.17795491  0.16220192    -0.19200
C1145       C  0.49411099  0.19331516  0.18385080    -0.07700
C1146       C  0.51434394  0.19033041  0.20106395    -0.03800
C1147       C  0.53282066  0.17160012  0.19653508    -0.09100
C1148       C  0.53140223  0.15642969  0.17471439    -0.16700
H1149       H  0.49151381  0.04919335  0.08988052     0.11400
H1150       H  0.50172954  0.08031301  0.12276794     0.10700
H1151       H  0.50268905  0.13992622  0.06662917     0.10700
H1152       H  0.49249421  0.10889513  0.03322258     0.11200
H1153       H  0.47686447  0.18048432  0.14905206     0.11200
H1154       H  0.47973229  0.20772852  0.18706151     0.11200
H1155       H  0.54871081  0.16928672  0.20947204     0.11400
H1156       H  0.54600107  0.14230103  0.17122008     0.10200
C1157       C  0.28406397  0.98889273  0.21251392    -0.03600
C1158       C  0.28397330  0.96663412  0.19770234    -0.09400
C1159       C  0.29823627  0.96538933  0.17510041    -0.17100
C1160       C  0.31263369  0.98641968  0.16709363     0.25100
C1161       C  0.31213873  0.00882158  0.18147888    -0.18700
C1162       C  0.29805134  0.01003412  0.20401845    -0.07600
C1163       C  0.32881139  0.98506972  0.14482148    -0.14100
C1164       C  0.34337918  0.98560414  0.12696272    -0.13800
C1165       C  0.36150430  0.98748139  0.10627734     0.25000
C1166       C  0.38763233  0.98478845  0.11099759    -0.19200
C1167       C  0.40528278  0.98690410  0.09108405    -0.07700
C1168       C  0.39708539  0.99170780  0.06602263    -0.03800
C1169       C  0.37074850  0.99456352  0.06152450    -0.09100
C1170       C  0.35316231  0.99250681  0.08147818    -0.16700
H1171       H  0.27401611  0.94985826  0.20432189     0.11400
H1172       H  0.29861293  0.94784233  0.16429913     0.10700
H1173       H  0.32328393  0.02515553  0.17566593     0.10700
H1174       H  0.29893398  0.02714524  0.21547904     0.11200
H1175       H  0.39438831  0.98100825  0.13010528     0.11200
H1176       H  0.42531993  0.98449274  0.09529852     0.11200
H1177       H  0.36365618  0.99834372  0.04254883     0.11400
H1178       H  0.33304165  0.99480717  0.07753425     0.10200
C1179       C  0.69618898  0.00520911  0.76466452    -0.03600
C1180       C  0.67606126  0.02140587  0.75759088    -0.09400
C1181       C  0.65490845  0.02486767  0.77374244    -0.17100
C1182       C  0.65357138  0.01226772  0.79727377     0.25100
C1183       C  0.67429441  0.99737903  0.80505039    -0.18700
C1184       C  0.69534337  0.99389056  0.78895850    -0.07600
C1185       C  0.63055309  0.01303525  0.81279913    -0.14100
C1186       C  0.61211292  0.01157619  0.82676011    -0.13800
C1187       C  0.59183844  0.00768088  0.84530372     0.25000
C1188       C  0.59768497  0.99635340  0.86867345    -0.19200
C1189       C  0.57870435  0.99227898  0.88692661    -0.07700
C1190       C  0.55322459  0.99934210  0.88229000    -0.03800
C1191       C  0.54729047  0.01046182  0.85861613    -0.09100
C1192       C  0.56647534  0.01466932  0.84030401    -0.16700
H1193       H  0.67572449  0.02971435  0.73874374     0.11400
H1194       H  0.63907334  0.03638716  0.76732145     0.10700
H1195       H  0.67365848  0.98741447  0.82308164     0.10700
H1196       H  0.71016034  0.98075965  0.79467587     0.11200
H1197       H  0.61707454  0.99071505  0.87288915     0.11200
H1198       H  0.58408911  0.98363707  0.90483693     0.11200
H1199       H  0.52798814  0.01641371  0.85449107     0.11400
H1200       H  0.56153571  0.02346261  0.82233844     0.10200
C1201       C  0.24464057  0.00220889  0.77399927    -0.03600
C1202       C  0.24759123  0.98042360  0.78921275    -0.09400
C1203       C  0.26302140  0.98107570  0.81104743    -0.17100
C1204       C  0.27569193  0.00353409  0.81798024     0.25100
C1205       C  0.27069029  0.02589468  0.80436571    -0.18700
C1206       C  0.25531825  0.02523645  0.78252357    -0.07600
C1207       C  0.29629847  0.00291385  0.83646603    -0.14100
C1208       C  0.31491344  0.00222413  0.85018715    -0.13800
C1209       C  0.33755916  0.00128960  0.86611969     0.25000
C1210       C  0.33633903  0.00922007  0.89153056    -0.19200
C1211       C  0.35784889  0.00767551  0.90725625    -0.07700
C1212       C  0.38120087  0.99827408  0.89790017    -0.03800
C1213       C  0.38248217  0.99086683  0.87214733    -0.09100
C1214       C  0.36081263  0.99226509  0.85644782    -0.16700
H1215       H  0.24025318  0.96230101  0.78270094     0.11400
H1216       H  0.26663662  0.96359675  0.82131624     0.10700
H1217       H  0.28028830  0.04342445  0.80941338     0.10700
H1218       H  0.25400072  0.04210948  0.77079350     0.11200
H1219       H  0.31864957  0.01643616  0.89930561     0.11200
H1220       H  0.35615974  0.01391240  0.92683306     0.11200
H1221       H  0.40008409  0.98358470  0.86425838     0.11400
H1222       H  0.36216325  0.98612666  0.83680546     0.10200
C1223       C  0.52469037  0.08227332  0.43167925    -0.03600
C1224       C  0.52758326  0.10779025  0.43957194    -0.09400
C1225       C  0.52789151  0.12773923  0.42180801    -0.17100
C1226       C  0.52526147  0.12273601  0.39573735     0.25100
C1227       C  0.52183800  0.09749540  0.38771746    -0.18700
C1228       C  0.52157466  0.07748104  0.40545265    -0.07600
C1229       C  0.52613098  0.14335402  0.37723112    -0.14100
C1230       C  0.52615392  0.15975051  0.36091076    -0.13800
C1231       C  0.52409845  0.17730530  0.33957725     0.25000
C1232       C  0.50266531  0.17590338  0.32382217    -0.19200
C1233       C  0.50131683  0.19028429  0.30148642    -0.07700
C1234       C  0.52139510  0.20648487  0.29429053    -0.03800
C1235       C  0.54230212  0.20909440  0.31087583    -0.09100
C1236       C  0.54369441  0.19449111  0.33335658    -0.16700
H1237       H  0.52988962  0.11240622  0.45952641     0.11400
H1238       H  0.53037456  0.14708902  0.42844190     0.10700
H1239       H  0.51955181  0.09322596  0.36767099     0.10700
H1240       H  0.51905585  0.05823514  0.39857279     0.11200
H1241       H  0.48731243  0.16288688  0.32829732     0.11200
H1242       H  0.48496253  0.18791393  0.28914414     0.11200
H1243       H  0.55814170  0.22123958  0.30572789     0.11400
H1244       H  0.56042813  0.19591734  0.34532844     0.10200
C1245       C  0.52018298  0.91032768  0.42638491    -0.03600
C1246       C  0.52284233  0.88450528  0.43311457    -0.09400
C1247       C  0.52284536  0.86542229  0.41452571    -0.17100
C1248       C  0.52010883  0.87160841  0.38878288     0.25100
C1249       C  0.51708161  0.89720571  0.38182890    -0.18700
C1250       C  0.51715821  0.91642516  0.40044769    -0.07600
C1251       C  0.52025004  0.85160862  0.36969766    -0.14100
C1252       C  0.51964962  0.83494752  0.35370229    -0.13800
C1253       C  0.51696240  0.81640493  0.33335777     0.25000
C1254       C  0.53624787  0.79873608  0.32768163    -0.19200
C1255       C  0.53409472  0.78269682  0.30624881    -0.07700
C1256       C  0.51265261  0.78424834  0.29016740    -0.03800
C1257       C  0.49286018  0.80100506  0.29706543    -0.09100
C1258       C  0.49506009  0.81692978  0.31826364    -0.16700
H1259       H  0.52519552  0.87894757  0.45281268     0.11400
H1260       H  0.52508367  0.84577610  0.42027560     0.10700
H1261       H  0.51475866  0.90233349  0.36200036     0.10700
H1262       H  0.51488690  0.93600777  0.39452752     0.11200
H1263       H  0.55326888  0.79791552  0.33930170     0.11200
H1264       H  0.54967839  0.77005230  0.30158544     0.11200
H1265       H  0.47581793  0.80234787  0.28554478     0.11400
H1266       H  0.47985825  0.83021083  0.32247298     0.10200
C1267       C  0.51456173  0.21409846  0.72382030    -0.03600
C1268       C  0.53540810  0.19795150  0.72839827    -0.09400
C1269       C  0.54244491  0.17937563  0.71040635    -0.17100
C1270       C  0.52872769  0.17673578  0.68757930     0.25100
C1271       C  0.50887160  0.19377014  0.68241237    -0.18700
C1272       C  0.50174054  0.21214377  0.70040261    -0.07600
C1273       C  0.53317645  0.15546653  0.67036628    -0.14100
C1274       C  0.53422117  0.13779043  0.65545698    -0.13800
C1275       C  0.53350442  0.11732968  0.63675200     0.25000
C1276       C  0.53191398  0.09177107  0.64431383    -0.19200
C1277       C  0.53070559  0.07218846  0.62605938    -0.07700
C1278       C  0.53103867  0.07779662  0.59983000    -0.03800
C1279       C  0.53231975  0.10359900  0.59250444    -0.09100
C1280       C  0.53355595  0.12305774  0.61072822    -0.16700
H1281       H  0.54509226  0.19856033  0.74659037     0.11400
H1282       H  0.55777238  0.16633875  0.71484623     0.10700
H1283       H  0.49799987  0.19200937  0.66497242     0.10700
H1284       H  0.48520011  0.22386619  0.69668857     0.11200
H1285       H  0.53155331  0.08695014  0.66434853     0.11200
H1286       H  0.52949190  0.05268261  0.63250360     0.11200
H1287       H  0.53243086  0.10887669  0.57258929     0.11400
H1288       H  0.53449405  0.14265461  0.60445997     0.10200
C1289       C  0.52970605  0.90594040  0.59582751    -0.03600
C1290       C  0.53237741  0.91138461  0.62197053    -0.09400
C1291       C  0.53691657  0.89186465  0.63957798    -0.17100
C1292       C  0.53894706  0.86654796  0.63145724     0.25100
C1293       C  0.53637815  0.86094812  0.60550973    -0.18700
C1294       C  0.53181965  0.88041137  0.58786750    -0.07600
C1295       C  0.54283366  0.84631968  0.64983363    -0.14100
C1296       C  0.54473088  0.82975462  0.66577969    -0.13800
C1297       C  0.54475217  0.81077451  0.68583654     0.25000
C1298       C  0.53884348  0.78528627  0.68046926    -0.19200
C1299       C  0.53496540  0.76783053  0.70034927    -0.07700
C1300       C  0.53696501  0.77565347  0.72584892    -0.03800
C1301       C  0.54435745  0.80087196  0.73101711    -0.09100
C1302       C  0.54822661  0.81825780  0.71119796    -0.16700
H1303       H  0.53111384  0.93075046  0.62886056     0.11400
H1304       H  0.53879661  0.89653895  0.65957636     0.10700
H1305       H  0.53784438  0.84149520  0.59888157     0.10700
H1306       H  0.53014617  0.87542005  0.56793811     0.11200
H1307       H  0.53587984  0.77921975  0.66098496     0.11200
H1308       H  0.52848701  0.74879644  0.69587009     0.11200
H1309       H  0.54527387  0.80757588  0.75050119     0.11400
H1310       H  0.55257767  0.83788171  0.71574471     0.10200
C1311       C  0.30575854  0.99121678  0.30393417    -0.03600
C1312       C  0.32918240  0.97864460  0.30067713    -0.09400
C1313       C  0.34854335  0.98144191  0.31859394    -0.17100
C1314       C  0.34466343  0.99664956  0.34005262     0.25100
C1315       C  0.32134206  0.00896354  0.34370829    -0.18700
C1316       C  0.30193181  0.00625791  0.32573525    -0.07600
C1317       C  0.36447481  0.99904190  0.35858968    -0.14100
C1318       C  0.38111412  0.00002058  0.37422710    -0.13800
C1319       C  0.40078636  0.00013835  0.39306005     0.25000
C1320       C  0.39457497  0.00389522  0.41865291    -0.19200
C1321       C  0.41362779  0.00339528  0.43714447    -0.07700
C1322       C  0.43914742  0.99916822  0.43017659    -0.03800
C1323       C  0.44516584  0.99545949  0.40431431    -0.09100
C1324       C  0.42605556  0.99590582  0.38588657    -0.16700
H1325       H  0.33250630  0.96659433  0.28428742     0.11400
H1326       H  0.36649684  0.97168719  0.31575386     0.10700
H1327       H  0.31821582  0.02071281  0.36036774     0.10700
H1328       H  0.28418719  0.01634510  0.32858850     0.11200
H1329       H  0.37499341  0.00708451  0.42432289     0.11200
H1330       H  0.40835201  0.00631993  0.45685547     0.11200
H1331       H  0.46458225  0.99197495  0.39830210     0.11400
H1332       H  0.43096144  0.99282261  0.36608691     0.10200
C1333       C  0.60876953  0.96332080  0.59120675    -0.03600
C1334       C  0.63202343  0.95456777  0.58091106    -0.09400
C1335       C  0.64654691  0.93634294  0.59370116    -0.17100
C1336       C  0.63807508  0.92657587  0.61693723     0.25100
C1337       C  0.61538733  0.93556443  0.62763427    -0.18700
C1338       C  0.60079667  0.95373247  0.61488875    -0.07600
C1339       C  0.65398383  0.90994134  0.63165021    -0.14100
C1340       C  0.66724957  0.90166188  0.64836548    -0.13800
C1341       C  0.68164906  0.90262786  0.67149849     0.25000
C1342       C  0.66901670  0.91155629  0.69312352    -0.19200
C1343       C  0.68200311  0.92661525  0.71065903    -0.07700
C1344       C  0.70799395  0.93236481  0.70691623    -0.03800
C1345       C  0.72145133  0.91829806  0.68840362    -0.09100
C1346       C  0.70818624  0.90411052  0.67023368    -0.16700
H1347       H  0.63864937  0.96113659  0.56253843     0.11400
H1348       H  0.66435921  0.92993390  0.58549457     0.10700
H1349       H  0.60896985  0.92852526  0.64592243     0.10700
H1350       H  0.58287386  0.95960041  0.62321798     0.11200
H1351       H  0.64844432  0.91033118  0.69440337     0.11200
H1352       H  0.67063581  0.93623381  0.72483348     0.11200
H1353       H  0.74178767  0.92055875  0.68602092     0.11400
H1354       H  0.71827979  0.89697722  0.65372230     0.10200
C1355       C  0.44118404  0.99258539  0.59855311    -0.03600
C1356       C  0.41634316  0.99983549  0.59163494    -0.09400
C1357       C  0.39631582  0.99723839  0.60871336    -0.17100
C1358       C  0.40069062  0.98743128  0.63298219     0.25100
C1359       C  0.42542061  0.98080929  0.64048048    -0.18700
C1360       C  0.44567487  0.98346631  0.62331942    -0.07600
C1361       C  0.37924668  0.98409137  0.64951195    -0.14100
C1362       C  0.35895962  0.98299586  0.66007088    -0.13800
C1363       C  0.33358124  0.98366962  0.67015946     0.25000
C1364       C  0.32600890  0.96610378  0.68860473    -0.19200
C1365       C  0.30171726  0.96774863  0.69927098    -0.07700
C1366       C  0.28471617  0.98682698  0.69140269    -0.03800
C1367       C  0.29207183  0.00383187  0.67221782    -0.09100
C1368       C  0.31647937  0.00228782  0.66168659    -0.16700
H1369       H  0.41223742  0.00720297  0.57283268     0.11400
H1370       H  0.37726428  0.00256336  0.60283071     0.10700
H1371       H  0.42896147  0.97327564  0.65933127     0.10700
H1372       H  0.46459993  0.97771190  0.62913109     0.11200
H1373       H  0.33904190  0.95154340  0.69514447     0.11200
H1374       H  0.29635455  0.95455384  0.71415623     0.11200
H1375       H  0.27935863  0.01888406  0.66620542     0.11400
H1376       H  0.32221057  0.01592819  0.64733886     0.10200
C1377       C  0.70091605  0.97137838  0.18024825    -0.03600
C1378       C  0.68698723  0.95111028  0.16954092    -0.09400
C1379       C  0.67074491  0.95496282  0.14870697    -0.17100
C1380       C  0.66792282  0.97919294  0.13800705     0.25100
C1381       C  0.68248726  0.99937454  0.14792565    -0.18700
C1382       C  0.69891927  0.99549577  0.16882633    -0.07600
C1383       C  0.64904650  0.98329881  0.11796243    -0.14100
C1384       C  0.63209912  0.98573397  0.10227448    -0.13800
C1385       C  0.61062765  0.98796929  0.08467896     0.25000
C1386       C  0.61433932  0.99467350  0.05907685    -0.19200
C1387       C  0.59351299  0.99647459  0.04226848    -0.07700
C1388       C  0.56842451  0.99167571  0.05069048    -0.03800
C1389       C  0.56490219  0.98522884  0.07650025    -0.09100
C1390       C  0.58573458  0.98331179  0.09320560    -0.16700
H1391       H  0.68799910  0.93234603  0.17795915     0.11400
H1392       H  0.65975250  0.93910532  0.14144187     0.10700
H1393       H  0.68056168  0.01828504  0.14002308     0.10700
H1394       H  0.70901219  0.01156437  0.17686648     0.11200
H1395       H  0.63336254  0.99841333  0.05203266     0.11200
H1396       H  0.59709885  0.00159548  0.02263458     0.11200
H1397       H  0.54602215  0.98128730  0.08378340     0.11400
H1398       H  0.58238487  0.97807618  0.11285888     0.10200
C1399       C  0.69338538  0.94764230  0.27166491    -0.03600
C1400       C  0.70219815  0.93149283  0.29110707    -0.09400
C1401       C  0.68936666  0.93025686  0.31436725    -0.17100
C1402       C  0.66761472  0.94505252  0.31830054     0.25100
C1403       C  0.65785212  0.95993980  0.29853154    -0.18700
C1404       C  0.67062202  0.96120046  0.27530317    -0.07600
C1405       C  0.65682427  0.94742552  0.34322216    -0.14100
C1406       C  0.64714679  0.95311649  0.36314731    -0.13800
C1407       C  0.63347043  0.96325907  0.38442975     0.25000
C1408       C  0.60955975  0.97392320  0.38012129    -0.19200
C1409       C  0.59559094  0.98371557  0.40031857    -0.07700
C1410       C  0.60515664  0.98266451  0.42535729    -0.03800
C1411       C  0.62978957  0.97293954  0.42942495    -0.09100
C1412       C  0.64391222  0.96327219  0.40896480    -0.16700
H1413       H  0.71966145  0.92080663  0.28871606     0.11400
H1414       H  0.69705702  0.91873287  0.32961954     0.10700
H1415       H  0.64110335  0.97160654  0.30151207     0.10700
H1416       H  0.66365532  0.97412891  0.26086363     0.11200
H1417       H  0.60150526  0.97433722  0.36112757     0.11200
H1418       H  0.57680742  0.99121358  0.39632572     0.11200
H1419       H  0.63769000  0.97185311  0.44842933     0.11400
H1420       H  0.66266004  0.95537782  0.41233625     0.10200
C1421       C  0.29560066  0.78907464  0.50374754    -0.03600
C1422       C  0.31457368  0.78530206  0.52230675    -0.09400
C1423       C  0.33608023  0.80133000  0.52327790    -0.17100
C1424       C  0.33894342  0.82126853  0.50568679     0.25100
C1425       C  0.32073939  0.82425506  0.48650222    -0.18700
C1426       C  0.29945865  0.80829449  0.48543098    -0.07600
C1427       C  0.35979801  0.83938543  0.50757057    -0.14100
C1428       C  0.37637703  0.85548767  0.50838294    -0.13800
C1429       C  0.39622357  0.87477930  0.50908877     0.25000
C1430       C  0.39012414  0.90062062  0.51186656    -0.19200
C1431       C  0.40946509  0.91909533  0.51289790    -0.07700
C1432       C  0.43532546  0.91204769  0.51120899    -0.03800
C1433       C  0.44116505  0.88604873  0.50818478    -0.09100
C1434       C  0.42184226  0.86768226  0.50711146    -0.16700
H1435       H  0.31219608  0.77081783  0.53674231     0.11400
H1436       H  0.35006357  0.79863485  0.53818685     0.10700
H1437       H  0.32267124  0.83936269  0.47262881     0.10700
H1438       H  0.28553666  0.81149249  0.47056871     0.11200
H1439       H  0.37040932  0.90650615  0.51332942     0.11200
H1440       H  0.40414744  0.93886040  0.51512920     0.11200
H1441       H  0.46074295  0.87979357  0.50661200     0.11400
H1442       H  0.42693926  0.84785650  0.50482741     0.10200
C1443       C  0.60343478  0.90131719  0.51458689    -0.03600
C1444       C  0.59448173  0.87626056  0.51072145    -0.09400
C1445       C  0.61088848  0.85529413  0.51274646    -0.17100
C1446       C  0.63662496  0.85873013  0.51887183     0.25100
C1447       C  0.64569058  0.88350445  0.52310585    -0.18700
C1448       C  0.62929259  0.90458105  0.52099939    -0.07600
C1449       C  0.65365884  0.83689422  0.52029686    -0.14100
C1450       C  0.66772813  0.81852028  0.52049305    -0.13800
C1451       C  0.68491586  0.79683804  0.51885116     0.25000
C1452       C  0.68022870  0.77739348  0.50117441    -0.19200
C1453       C  0.69867705  0.75867425  0.49644107    -0.07700
C1454       C  0.72218059  0.75902492  0.50931926    -0.03800
C1455       C  0.72591922  0.77733370  0.52851267    -0.09100
C1456       C  0.70747603  0.79614529  0.53317486    -0.16700
H1457       H  0.57472433  0.87277131  0.50595204     0.11400
H1458       H  0.60346299  0.83635499  0.50942308     0.10700
H1459       H  0.66550190  0.88657147  0.52796322     0.10700
H1460       H  0.63684427  0.92340924  0.52453029     0.11200
H1461       H  0.66297795  0.77759734  0.48986943     0.11200
H1462       H  0.69560929  0.74534942  0.48100921     0.11200
H1463       H  0.74414405  0.77864098  0.53809026     0.11400
H1464       H  0.71151960  0.81102728  0.54685745     0.10200
C1465       C  0.61276792  0.07556530  0.51789313    -0.03600
C1466       C  0.60645196  0.10079488  0.51134439    -0.09400
C1467       C  0.62420651  0.12046712  0.51382550    -0.17100
C1468       C  0.64869247  0.11552705  0.52302680     0.25100
C1469       C  0.65537948  0.09044571  0.52936689    -0.18700
C1470       C  0.63757934  0.07057689  0.52675647    -0.07600
C1471       C  0.66669936  0.13634212  0.52567285    -0.14100
C1472       C  0.68115305  0.15432533  0.52686335    -0.13800
C1473       C  0.69898744  0.17545707  0.52668541     0.25000
C1474       C  0.72363830  0.17227189  0.53641005    -0.19200
C1475       C  0.74215114  0.19118927  0.53288904    -0.07700
C1476       C  0.73626981  0.21368359  0.51970804    -0.03800
C1477       C  0.71112731  0.21743597  0.51130078    -0.09100
C1478       C  0.69260167  0.19848394  0.51480419    -0.16700
H1479       H  0.58764887  0.10543423  0.50427027     0.11400
H1480       H  0.61873651  0.13964105  0.50865899     0.10700
H1481       H  0.67428913  0.08626061  0.53644971     0.10700
H1482       H  0.64305814  0.05147095  0.53210470     0.11200
H1483       H  0.72896149  0.15456945  0.54548396     0.11200
H1484       H  0.76157023  0.18744681  0.53873178     0.11200
H1485       H  0.70634999  0.23418025  0.50030692     0.11400
H1486       H  0.67370131  0.20124698  0.50701501     0.10200
C1487       C  0.30567606  0.20328308  0.51468419    -0.03600
C1488       C  0.32204594  0.20354317  0.49353195    -0.09400
C1489       C  0.34487276  0.18964926  0.49389482    -0.17100
C1490       C  0.35157733  0.17537695  0.51542287     0.25100
C1491       C  0.33587353  0.17606964  0.53697782    -0.18700
C1492       C  0.31302185  0.18980086  0.53656694    -0.07600
C1493       C  0.37309458  0.15817900  0.51471966    -0.14100
C1494       C  0.38962875  0.14214155  0.51453121    -0.13800
C1495       C  0.40808086  0.12171243  0.51489750     0.25000
C1496       C  0.39985706  0.09636690  0.51480334    -0.19200
C1497       C  0.41756735  0.07647242  0.51559042    -0.07700
C1498       C  0.44389869  0.08160491  0.51641653    -0.03800
C1499       C  0.45195232  0.10717001  0.51658371    -0.09100
C1500       C  0.43419371  0.12701719  0.51579734    -0.16700
H1501       H  0.31644350  0.21326025  0.47625389     0.11400
H1502       H  0.35670447  0.18914992  0.47700894     0.10700
H1503       H  0.34069777  0.16503430  0.55370059     0.10700
H1504       H  0.30043007  0.18889139  0.55287143     0.11200
H1505       H  0.37970841  0.09196392  0.51414778     0.11200
H1506       H  0.41059806  0.05709380  0.51539919     0.11200
H1507       H  0.47201241  0.11190469  0.51719296     0.11400
H1508       H  0.44085562  0.14650983  0.51592144     0.10200
C1509       C  0.88803854  0.00057450  0.55329374    -0.03600
C1510       C  0.86277027  0.00774243  0.54766172    -0.09400
C1511       C  0.84454038  0.01062256  0.56724011    -0.17100
C1512       C  0.85111260  0.00633201  0.59285483     0.25100
C1513       C  0.87609393  0.99887737  0.59848129    -0.18700
C1514       C  0.89426366  0.99606902  0.57907024    -0.07600
C1515       C  0.83254271  0.00938957  0.61346674    -0.14100
C1516       C  0.81774795  0.01117328  0.63133077    -0.13800
C1517       C  0.80002317  0.01183783  0.65288489     0.25000
C1518       C  0.80718627  0.00197979  0.67667067    -0.19200
C1519       C  0.78922871  0.99952102  0.69642034    -0.07700
C1520       C  0.76370267  0.00699780  0.69295421    -0.03800
C1521       C  0.75693439  0.01807473  0.66951843    -0.09100
C1522       C  0.77492423  0.02056538  0.64975073    -0.16700
H1523       H  0.85716281  0.01146699  0.52818949     0.11400
H1524       H  0.82533441  0.01633049  0.56237482     0.10700
H1525       H  0.88164663  0.99532019  0.61801622     0.10700
H1526       H  0.91335594  0.99041450  0.58439797     0.11200
H1527       H  0.82636029  0.99496294  0.67957335     0.11200
H1528       H  0.79481000  0.98997846  0.71380875     0.11200
H1529       H  0.73726394  0.02303806  0.66583833     0.11400
H1530       H  0.76887164  0.02810853  0.63155580     0.10200
C1531       C  0.05692796  0.99357294  0.56267971    -0.03600
C1532       C  0.04832242  0.99755053  0.58785922    -0.09400
C1533       C  0.06545605  0.99811336  0.60845754    -0.17100
C1534       C  0.09166121  0.99474951  0.60449322     0.25100
C1535       C  0.10044567  0.99103478  0.57951080    -0.18700
C1536       C  0.08334687  0.99051661  0.55885606    -0.07600
C1537       C  0.10952331  0.99489047  0.62587411    -0.14100
C1538       C  0.12535951  0.99448298  0.64285983    -0.13800
C1539       C  0.14599147  0.99301126  0.66149888     0.25000
C1540       C  0.16350408  0.97295358  0.66017822    -0.19200
C1541       C  0.18492827  0.97248552  0.67612624    -0.07700
C1542       C  0.18937778  0.99203628  0.69394808    -0.03800
C1543       C  0.17110943  0.01150703  0.69615280    -0.09100
C1544       C  0.14967032  0.01206012  0.67996869    -0.16700
H1545       H  0.02824694  0.00020561  0.59173533     0.11400
H1546       H  0.05818961  0.00108833  0.62752707     0.10700
H1547       H  0.12059966  0.98843294  0.57596106     0.10700
H1548       H  0.09085172  0.98753542  0.53989434     0.11200
H1549       H  0.16103161  0.95798735  0.64621380     0.11200
H1550       H  0.19848373  0.95710771  0.67404804     0.11200
H1551       H  0.17405561  0.02692548  0.70950566     0.11400
H1552       H  0.13639299  0.02774938  0.68137281     0.10200
C1553       C  0.21454914  0.98196602  0.27964196    -0.03600
C1554       C  0.19694670  0.00174898  0.27604741    -0.09400
C1555       C  0.17340525  0.00135108  0.28873925    -0.17100
C1556       C  0.16718870  0.98112429  0.30501249     0.25100
C1557       C  0.18418637  0.96077569  0.30757936    -0.18700
C1558       C  0.20771153  0.96123792  0.29507313    -0.07600
C1559       C  0.14457340  0.98218039  0.32076693    -0.14100
C1560       C  0.12682073  0.98339532  0.33544513    -0.13800
C1561       C  0.10655966  0.98514271  0.35409147     0.25000
C1562       C  0.11238340  0.98766165  0.38001179    -0.19200
C1563       C  0.09288409  0.98928572  0.39819220    -0.07700
C1564       C  0.06712675  0.98851593  0.39076075    -0.03800
C1565       C  0.06148939  0.98607289  0.36459265    -0.09100
C1566       C  0.08102289  0.98437571  0.34647312    -0.16700
H1567       H  0.20201421  0.01814540  0.26466592     0.11400
H1568       H  0.16052114  0.01729677  0.28668274     0.10700
H1569       H  0.17973815  0.94505040  0.32012207     0.10700
H1570       H  0.22112884  0.94594780  0.29834982     0.11200
H1571       H  0.13205130  0.98834687  0.38620514     0.11200
H1572       H  0.09800971  0.99123046  0.41805854     0.11200
H1573       H  0.04194643  0.98533120  0.35805638     0.11400
H1574       H  0.07618286  0.98244322  0.32651624     0.10200
C1575       C  0.77568460  0.98008653  0.24292037    -0.03600
C1576       C  0.79547949  0.96242126  0.24652732    -0.09400
C1577       C  0.81595669  0.96798854  0.26284236    -0.17100
C1578       C  0.81680896  0.99115647  0.27609897     0.25100
C1579       C  0.79786030  0.00936544  0.27146508    -0.18700
C1580       C  0.77750231  0.00388126  0.25501351    -0.07600
C1581       C  0.83541435  0.99508820  0.29627493    -0.14100
C1582       C  0.84985662  0.99718589  0.31424563    -0.13800
C1583       C  0.86663516  0.99846738  0.33628071     0.25000
C1584       C  0.85664221  0.99823548  0.36107942    -0.19200
C1585       C  0.87290684  0.99849148  0.38236839    -0.07700
C1586       C  0.89955714  0.99898011  0.37926083    -0.03800
C1587       C  0.90934768  0.99942592  0.35421102    -0.09100
C1588       C  0.89308968  0.99916544  0.33303298    -0.16700
H1589       H  0.79407391  0.94359153  0.23828187     0.11400
H1590       H  0.83029739  0.95359689  0.26629571     0.10700
H1591       H  0.79800552  0.02725972  0.28168635     0.10700
H1592       H  0.76201958  0.01738977  0.25342779     0.11200
H1593       H  0.83622863  0.99761633  0.36398398     0.11200
H1594       H  0.86460207  0.99806303  0.40122481     0.11200
H1595       H  0.92969042  0.99980010  0.35085813     0.11400
H1596       H  0.90122012  0.99928404  0.31407886     0.10200
C1597       C  0.05767048  0.90485339  0.47235831    -0.03600
C1598       C  0.08331672  0.91100157  0.46749159    -0.09400
C1599       C  0.10209571  0.89233664  0.46831093    -0.17100
C1600       C  0.09562516  0.86724111  0.47401454     0.25100
C1601       C  0.07014700  0.86068303  0.47840039    -0.18700
C1602       C  0.05119222  0.87939433  0.47746767    -0.07600
C1603       C  0.11556404  0.84880895  0.47664487    -0.14100
C1604       C  0.13375534  0.83531576  0.47988095    -0.13800
C1605       C  0.15634130  0.82087870  0.48494776     0.25000
C1606       C  0.15697625  0.80426315  0.50568743    -0.19200
C1607       C  0.17917186  0.79078004  0.51117573    -0.07700
C1608       C  0.20101107  0.79388210  0.49600554    -0.03800
C1609       C  0.20027508  0.81073128  0.47528590    -0.09100
C1610       C  0.17801166  0.82416319  0.46978600    -0.16700
H1611       H  0.08897596  0.93033467  0.46322769     0.11400
H1612       H  0.12176874  0.89758439  0.46492041     0.10700
H1613       H  0.06501216  0.84125993  0.48294786     0.10700
H1614       H  0.03164808  0.87407281  0.48132558     0.11200
H1615       H  0.14035918  0.80181719  0.51766732     0.11200
H1616       H  0.17935350  0.77804873  0.52736650     0.11200
H1617       H  0.21676674  0.81317281  0.46314590     0.11400
H1618       H  0.17770081  0.83710879  0.45376054     0.10200
C1619       C  0.89051258  0.91488539  0.45305572    -0.03600
C1620       C  0.87250979  0.92122484  0.43425969    -0.09400
C1621       C  0.85723076  0.90232561  0.42334990    -0.17100
C1622       C  0.85982068  0.87705221  0.43124069     0.25100
C1623       C  0.87707677  0.87083616  0.45052922    -0.18700
C1624       C  0.89244098  0.88957679  0.46127348    -0.07600
C1625       C  0.84385763  0.85736685  0.42112013    -0.14100
C1626       C  0.83020064  0.83923313  0.41833386    -0.13800
C1627       C  0.81366028  0.81826209  0.42371841     0.25000
C1628       C  0.82154017  0.79316788  0.41954042    -0.19200
C1629       C  0.80849757  0.77304589  0.43118377    -0.07700
C1630       C  0.78788053  0.77796843  0.44765754    -0.03800
C1631       C  0.77944441  0.80329584  0.45037630    -0.09100
C1632       C  0.79205679  0.82311801  0.43832044    -0.16700
H1633       H  0.87101531  0.94053987  0.42727395     0.11400
H1634       H  0.84364419  0.90735634  0.40867941     0.10700
H1635       H  0.87882707  0.85139459  0.45711316     0.10700
H1636       H  0.90620181  0.88421566  0.47566095     0.11200
H1637       H  0.83854362  0.78925861  0.40853609     0.11200
H1638       H  0.81533717  0.75386226  0.42825803     0.11200
H1639       H  0.76433582  0.80835290  0.46341133     0.11400
H1640       H  0.78616134  0.84249889  0.44215536     0.10200
C1641       C  0.90166757  0.08249799  0.44774868    -0.03600
C1642       C  0.87496842  0.08047394  0.44814191    -0.09400
C1643       C  0.85993117  0.09961907  0.43742353    -0.17100
C1644       C  0.87141781  0.12067426  0.42582669     0.25100
C1645       C  0.89792713  0.12260856  0.42499157    -0.18700
C1646       C  0.91296090  0.10365937  0.43582729    -0.07600
C1647       C  0.85612686  0.14171569  0.41765967    -0.14100
C1648       C  0.84341106  0.16063076  0.41597332    -0.13800
C1649       C  0.82898040  0.18286192  0.42222727     0.25000
C1650       C  0.84134979  0.20261926  0.43497407    -0.19200
C1651       C  0.82735690  0.21983135  0.44945687    -0.07700
C1652       C  0.80066061  0.21768512  0.45117411    -0.03800
C1653       C  0.78823022  0.19959814  0.43570434    -0.09100
C1654       C  0.80237670  0.18203576  0.42158735    -0.16700
H1655       H  0.86574878  0.06431417  0.45697860     0.11400
H1656       H  0.83937335  0.09822895  0.43856284     0.10700
H1657       H  0.90698843  0.13899188  0.41637524     0.10700
H1658       H  0.93347413  0.10551655  0.43467642     0.11200
H1659       H  0.86196639  0.20322601  0.43583694     0.11200
H1660       H  0.83784242  0.23312415  0.46116418     0.11200
H1661       H  0.76769568  0.19783551  0.43585423     0.11400
H1662       H  0.79263218  0.16667919  0.41186521     0.10200
C1663       C  0.21400448  0.18170683  0.50372684    -0.03600
C1664       C  0.19148406  0.18453340  0.51791069    -0.09400
C1665       C  0.17128525  0.16769696  0.51464071    -0.17100
C1666       C  0.17329856  0.14777227  0.49719632     0.25100
C1667       C  0.19593861  0.14416206  0.48355345    -0.18700
C1668       C  0.21629516  0.16105352  0.48684069    -0.07600
C1669       C  0.15166234  0.13173885  0.49287768    -0.14100
C1670       C  0.13291161  0.11899328  0.48983536    -0.13800
C1671       C  0.11104822  0.10300247  0.48680155     0.25000
C1672       C  0.11387123  0.07678598  0.48945383    -0.19200
C1673       C  0.09291822  0.06088255  0.48652647    -0.07700
C1674       C  0.06871335  0.07100530  0.48090722    -0.03800
C1675       C  0.06597501  0.09747186  0.47842770    -0.09100
C1676       C  0.08710991  0.11340805  0.48134873    -0.16700
H1677       H  0.18942578  0.19996264  0.53141484     0.11400
H1678       H  0.15391376  0.17048799  0.52542230     0.10700
H1679       H  0.19764773  0.12866383  0.47005900     0.10700
H1680       H  0.23343224  0.15847505  0.47566421     0.11200
H1681       H  0.13230976  0.06861114  0.49378826     0.11200
H1682       H  0.09576225  0.04061913  0.48879326     0.11200
H1683       H  0.04762320  0.10581585  0.47413553     0.11400
H1684       H  0.08480268  0.13377198  0.47933749     0.10200
C1685       C  0.95202790  0.70277401  0.19575399    -0.03600
C1686       C  0.93229876  0.68560367  0.18987789    -0.09400
C1687       C  0.93323853  0.67068616  0.16764356    -0.17100
C1688       C  0.95410497  0.67238438  0.15097998     0.35300
C1689       C  0.97335280  0.69017805  0.15634098    -0.18700
C1690       C  0.97234697  0.70520165  0.17851285    -0.07600
C1691       C  0.95679962  0.65466579  0.12962342    -0.14100
C1692       C  0.95999694  0.63907025  0.11267995    -0.13800
C1693       C  0.96428369  0.61956455  0.09318499     0.25000
C1694       C  0.96736544  0.59397521  0.10010624    -0.19200
C1695       C  0.97081122  0.57499467  0.08146817    -0.07700
C1696       C  0.97128942  0.58105332  0.05527558    -0.03800
C1697       C  0.96876228  0.60693969  0.04854574    -0.09100
C1698       C  0.96529167  0.62589882  0.06723805    -0.16700
H1699       H  0.91677533  0.68284439  0.20317585     0.11400
H1700       H  0.91820053  0.65704677  0.16403993     0.10700
H1701       H  0.98972325  0.69171582  0.14389763     0.10700
H1702       H  0.98817315  0.71764740  0.18295321     0.11200
H1703       H  0.96685626  0.58859198  0.11999927     0.11200
H1704       H  0.97280047  0.55546706  0.08763840     0.11200
H1705       H  0.96910686  0.61258016  0.02873924     0.11400
H1706       H  0.96314741  0.64551993  0.06137286     0.10200
C1707       C  0.97159875  0.91206912  0.38395443    -0.03600
C1708       C  0.95999449  0.88848961  0.38906626    -0.09400
C1709       C  0.95581874  0.87081106  0.36952426    -0.17100
C1710       C  0.96327158  0.87621018  0.34448763     0.25100
C1711       C  0.97482499  0.89965958  0.33916530    -0.18700
C1712       C  0.97886246  0.91748678  0.35868303    -0.07600
C1713       C  0.95937974  0.85742499  0.32455715    -0.14100
C1714       C  0.95611870  0.84065515  0.30898908    -0.13800
C1715       C  0.95230147  0.81916080  0.29198652     0.25000
C1716       C  0.93356986  0.80103409  0.29756551    -0.19200
C1717       C  0.93173336  0.77868844  0.28313542    -0.07700
C1718       C  0.94865560  0.77394696  0.26285287    -0.03800
C1719       C  0.96645905  0.79282827  0.25639908    -0.09100
C1720       C  0.96830019  0.81525931  0.27090847    -0.16700
H1721       H  0.95377966  0.88380922  0.40815033     0.11400
H1722       H  0.94677871  0.85284500  0.37398929     0.10700
H1723       H  0.98073598  0.90417281  0.31993707     0.10700
H1724       H  0.98775976  0.93546350  0.35399765     0.11200
H1725       H  0.92112078  0.80360686  0.31381524     0.11200
H1726       H  0.91823733  0.76421630  0.28891713     0.11200
H1727       H  0.98018289  0.78938294  0.24140430     0.11400
H1728       H  0.98298461  0.82899963  0.26639357     0.10200
C1729       C  0.96980664  0.40634880  0.88754233    -0.03600
C1730       C  0.96591213  0.38125066  0.89627548    -0.09400
C1731       C  0.96332767  0.36095449  0.87917693    -0.17100
C1732       C  0.96449815  0.36512724  0.85290182     0.25100
C1733       C  0.96788583  0.39004734  0.84391649    -0.18700
C1734       C  0.97048615  0.41048218  0.86105274    -0.07600
C1735       C  0.96365526  0.34361822  0.83546959    -0.14100
C1736       C  0.96485284  0.32513847  0.82161237    -0.13800
C1737       C  0.96924445  0.30322713  0.80525594     0.25000
C1738       C  0.95417908  0.29886902  0.78359836    -0.19200
C1739       C  0.96102410  0.27998188  0.76590410    -0.07700
C1740       C  0.98307374  0.26526869  0.76956390    -0.03800
C1741       C  0.99715847  0.26868560  0.79209516    -0.09100
C1742       C  0.99023886  0.28741217  0.80980758    -0.16700
H1743       H  0.96498049  0.37714243  0.91644501     0.11400
H1744       H  0.96075198  0.34188431  0.88652446     0.10700
H1745       H  0.96887372  0.39366085  0.82364864     0.10700
H1746       H  0.97325179  0.42944548  0.85355466     0.11200
H1747       H  0.93795847  0.31095563  0.77966088     0.11200
H1748       H  0.95035032  0.27832804  0.74833948     0.11200
H1749       H  0.01464443  0.25816471  0.79502143     0.11400
H1750       H  0.00216151  0.29052102  0.82635244     0.10200
C1751       C  0.98870173  0.20016327  0.69754380    -0.03600
C1752       C  0.96845635  0.20375356  0.68040883    -0.09400
C1753       C  0.96267317  0.18524103  0.66196139    -0.17100
C1754       C  0.97702830  0.16278036  0.66034038     0.25100
C1755       C  0.99663444  0.15871193  0.67805387    -0.18700
C1756       C  0.00256060  0.17731514  0.69635945    -0.07600
C1757       C  0.97301076  0.14482767  0.63954087    -0.14100
C1758       C  0.97141584  0.12998602  0.62181704    -0.13800
C1759       C  0.97148100  0.11192561  0.60073363     0.25000
C1760       C  0.97720439  0.08629909  0.60516964    -0.19200
C1761       C  0.97863047  0.06899207  0.58488436    -0.07700
C1762       C  0.97446574  0.07689653  0.55954200    -0.03800
C1763       C  0.96856827  0.10265457  0.55521777    -0.09100
C1764       C  0.96701663  0.11996040  0.57562747    -0.16700
H1765       H  0.95799823  0.22149749  0.68044478     0.11400
H1766       H  0.94759775  0.18888773  0.64837710     0.10700
H1767       H  0.00803461  0.14157722  0.67707357     0.10700
H1768       H  0.01865456  0.17435509  0.70890264     0.11200
H1769       H  0.98082826  0.07968552  0.62435503     0.11200
H1770       H  0.98326166  0.04938045  0.58909909     0.11200
H1771       H  0.96500354  0.10941109  0.53608805     0.11400
H1772       H  0.96256719  0.13968722  0.57176970     0.10200
C1773       C  0.97429739  0.72061004  0.76604880    -0.03600
C1774       C  0.98900954  0.71908619  0.78839923    -0.09400
C1775       C  0.98375677  0.70063731  0.80691516    -0.17100
C1776       C  0.96373266  0.68334567  0.80344286     0.25100
C1777       C  0.94778164  0.68604063  0.78216075    -0.18700
C1778       C  0.95297484  0.70460919  0.76363519    -0.07600
C1779       C  0.96127431  0.66161519  0.82039561    -0.14100
C1780       C  0.96121235  0.64316999  0.83432149    -0.13800
C1781       C  0.96265198  0.62142353  0.85139106     0.25000
C1782       C  0.97426200  0.59863481  0.84359498    -0.19200
C1783       C  0.97678836  0.57811622  0.86060369    -0.07700
C1784       C  0.96804100  0.58018791  0.88583295    -0.03800
C1785       C  0.95605341  0.60301283  0.89333389    -0.09100
C1786       C  0.95331762  0.62332475  0.87628845    -0.16700
H1787       H  0.00590268  0.73073917  0.79045713     0.11400
H1788       H  0.99630268  0.69887717  0.82318814     0.10700
H1789       H  0.93224064  0.67284200  0.77910229     0.10700
H1790       H  0.94178217  0.70486708  0.74631924     0.11200
H1791       H  0.98166725  0.59682451  0.82443716     0.11200
H1792       H  0.98614065  0.56090803  0.85423231     0.11200
H1793       H  0.94877022  0.60520556  0.91250408     0.11400
H1794       H  0.94422771  0.64068087  0.88268834     0.10200
C1795       C  0.96752629  0.90867333  0.55594011    -0.03600
C1796       C  0.96091179  0.88338929  0.54997141    -0.09400
C1797       C  0.95992299  0.86467799  0.56902758    -0.17100
C1798       C  0.96560070  0.87079309  0.59439965     0.25100
C1799       C  0.97212149  0.89590442  0.60052209    -0.18700
C1800       C  0.97296442  0.91466150  0.58155706    -0.07600
C1801       C  0.96482406  0.85136860  0.61408103    -0.14100
C1802       C  0.96451760  0.83509189  0.63047288    -0.13800
C1803       C  0.96530454  0.81532099  0.64979326     0.25000
C1804       C  0.96410211  0.78966644  0.64268445    -0.19200
C1805       C  0.96800274  0.77052098  0.66080417    -0.07700
C1806       C  0.97319850  0.77665107  0.68640698    -0.03800
C1807       C  0.97278219  0.80232980  0.69376135    -0.09100
C1808       C  0.96892882  0.82152992  0.67555305    -0.16700
H1809       H  0.95646803  0.87804274  0.53056662     0.11400
H1810       H  0.95480203  0.84538282  0.56392818     0.10700
H1811       H  0.97662984  0.90101496  0.61998987     0.10700
H1812       H  0.97823729  0.93382632  0.58695598     0.11200
H1813       H  0.96123691  0.78444919  0.62293497     0.11200
H1814       H  0.96837681  0.75088110  0.65457911     0.11200
H1815       H  0.97714013  0.80760016  0.71320917     0.11400
H1816       H  0.96987999  0.84125706  0.68140071     0.10200
C1817       C  0.11313931  0.57544747  0.50508660    -0.03600
C1818       C  0.13862598  0.56729488  0.50260955    -0.09400
C1819       C  0.15884938  0.58460786  0.50427477    -0.17100
C1820       C  0.15412007  0.61045092  0.50848844     0.25100
C1821       C  0.12886352  0.61883090  0.51092635    -0.18700
C1822       C  0.10854205  0.60152327  0.50922520    -0.07600
C1823       C  0.17511577  0.62832684  0.51029406    -0.14100
C1824       C  0.19196829  0.64403256  0.51186844    -0.13800
C1825       C  0.21015744  0.66470555  0.51400665     0.25000
C1826       C  0.22679212  0.67052891  0.49390154    -0.19200
C1827       C  0.24089292  0.69326229  0.49419761    -0.07700
C1828       C  0.23850950  0.71038932  0.51461755    -0.03800
C1829       C  0.22336609  0.70338078  0.53557396    -0.09100
C1830       C  0.20927218  0.68079132  0.53523258    -0.16700
H1831       H  0.14304202  0.54742868  0.49950303     0.11400
H1832       H  0.17821743  0.57777674  0.50235625     0.10700
H1833       H  0.12486352  0.63876331  0.51425316     0.10700
H1834       H  0.08928472  0.60852760  0.51148279     0.11200
H1835       H  0.22762799  0.65835373  0.47728246     0.11200
H1836       H  0.25174871  0.69855483  0.47749173     0.11200
H1837       H  0.22058013  0.71658528  0.55116608     0.11400
H1838       H  0.19643107  0.67670633  0.55084782     0.10200
C1839       C  0.93675517  0.41179585  0.52266523    -0.03600
C1840       C  0.91178013  0.41833673  0.51521883    -0.09400
C1841       C  0.89157516  0.40107844  0.51801316    -0.17100
C1842       C  0.89575179  0.37693939  0.52848975     0.25100
C1843       C  0.92051023  0.37028789  0.53609005    -0.18700
C1844       C  0.94084221  0.38747772  0.53309201    -0.07600
C1845       C  0.87487120  0.35875643  0.53028331    -0.14100
C1846       C  0.85741686  0.34353961  0.52990781    -0.13800
C1847       C  0.83690101  0.32516733  0.52658691     0.25000
C1848       C  0.81978843  0.32800464  0.50631435    -0.19200
C1849       C  0.80206317  0.30886673  0.50070473    -0.07700
C1850       C  0.80088478  0.28654243  0.51539150    -0.03800
C1851       C  0.81719298  0.28427792  0.53651841    -0.09100
C1852       C  0.83510995  0.30344087  0.54204583    -0.16700
H1853       H  0.90785490  0.43678608  0.50696784     0.11400
H1854       H  0.87267329  0.40654642  0.51182340     0.10700
H1855       H  0.92416522  0.35170805  0.54416995     0.10700
H1856       H  0.95970446  0.38184295  0.53920104     0.11200
H1857       H  0.82090335  0.34453317  0.49407677     0.11200
H1858       H  0.79013063  0.31085137  0.48400616     0.11200
H1859       H  0.81721008  0.26698966  0.54769993     0.11400
H1860       H  0.84826797  0.30078810  0.55769565     0.10200
C1861       C  0.10968847  0.40720326  0.50778953    -0.03600
C1862       C  0.13511920  0.41407295  0.50228637    -0.09400
C1863       C  0.15485071  0.39610011  0.50326687    -0.17100
C1864       C  0.14975613  0.37078670  0.50978138     0.25100
C1865       C  0.12448424  0.36361019  0.51484644    -0.18700
C1866       C  0.10464408  0.38159047  0.51383359    -0.07600
C1867       C  0.17040010  0.35229320  0.51125118    -0.14100
C1868       C  0.18730403  0.33648374  0.51207224    -0.13800
C1869       C  0.20631434  0.31628462  0.51193145     0.25000
C1870       C  0.21533209  0.30567687  0.53476475    -0.19200
C1871       C  0.23081115  0.28383058  0.53437300    -0.07700
C1872       C  0.23760944  0.27238649  0.51113516    -0.03800
C1873       C  0.22960954  0.28386850  0.48835897    -0.09100
C1874       C  0.21421255  0.30565378  0.48875271    -0.16700
H1875       H  0.13991133  0.43348660  0.49739473     0.11400
H1876       H  0.17416522  0.40204921  0.49911738     0.10700
H1877       H  0.12010936  0.34410759  0.51980179     0.10700
H1878       H  0.08543721  0.37550320  0.51819746     0.11200
H1879       H  0.20938242  0.31351257  0.55288755     0.11200
H1880       H  0.23605645  0.27490756  0.55218988     0.11200
H1881       H  0.23395004  0.27499072  0.47026107     0.11400
H1882       H  0.20740550  0.31344269  0.47092971     0.10200
C1883       C  0.94103405  0.58012024  0.51572035    -0.03600
C1884       C  0.94690562  0.60614023  0.51301153    -0.09400
C1885       C  0.92751752  0.62461660  0.51315099    -0.17100
C1886       C  0.90190199  0.61748694  0.51606511     0.25100
C1887       C  0.89596909  0.59171086  0.51908507    -0.18700
C1888       C  0.91523815  0.57326290  0.51894207    -0.07600
C1889       C  0.88158382  0.63633125  0.51564977    -0.14100
C1890       C  0.86402599  0.65139194  0.51499233    -0.13800
C1891       C  0.84294998  0.66932745  0.51343168     0.25000
C1892       C  0.81866158  0.66126957  0.50558596    -0.19200
C1893       C  0.79892707  0.67899205  0.50193695    -0.07700
C1894       C  0.80322775  0.70505702  0.50601800    -0.03800
C1895       C  0.82730093  0.71286966  0.51485134    -0.09100
C1896       C  0.84693447  0.69517892  0.51859815    -0.16700
H1897       H  0.96644615  0.61223065  0.51052878     0.11400
H1898       H  0.93251947  0.64445660  0.51080787     0.10700
H1899       H  0.87633784  0.58579507  0.52138983     0.10700
H1900       H  0.90980317  0.55353215  0.52116871     0.11200
H1901       H  0.81521402  0.64138910  0.50143130     0.11200
H1902       H  0.78078715  0.67254135  0.49454067     0.11200
H1903       H  0.83123496  0.73289058  0.51768787     0.11400
H1904       H  0.86550316  0.70182141  0.52465401     0.10200
C1905       C  0.21733994  0.50054834  0.27389157    -0.03600
C1906       C  0.19634519  0.51622272  0.27966012    -0.09400
C1907       C  0.18347563  0.51397026  0.30282303    -0.17100
C1908       C  0.19140654  0.49624858  0.32097276     0.25100
C1909       C  0.21343123  0.48177777  0.31627473    -0.18700
C1910       C  0.22637519  0.48394962  0.29286642    -0.07600
C1911       C  0.17565611  0.49217341  0.34332955    -0.14100
C1912       C  0.16030051  0.49004981  0.36047257    -0.13800
C1913       C  0.14102160  0.48893410  0.38028919     0.25000
C1914       C  0.14805577  0.49144504  0.40583237    -0.19200
C1915       C  0.12952031  0.49152397  0.42499054    -0.07700
C1916       C  0.10337050  0.48912732  0.41911335    -0.03800
C1917       C  0.09642722  0.48638612  0.39334754    -0.09100
C1918       C  0.11511368  0.48628447  0.37413099    -0.16700
H1919       H  0.18905943  0.52943162  0.26563537     0.11400
H1920       H  0.16665824  0.52543404  0.30615962     0.10700
H1921       H  0.21995445  0.46807449  0.33019700     0.10700
H1922       H  0.24237054  0.47154673  0.28900344     0.11200
H1923       H  0.16792106  0.49359626  0.41098352     0.11200
H1924       H  0.13580150  0.49368858  0.44449986     0.11200
H1925       H  0.07660434  0.48443731  0.38801900     0.11400
H1926       H  0.10931995  0.48437606  0.35443224     0.10200
C1927       C  0.80080496  0.50158226  0.30241695    -0.03600
C1928       C  0.79532416  0.51400459  0.32549549    -0.09400
C1929       C  0.81134456  0.51081996  0.34678746    -0.17100
C1930       C  0.83292924  0.49504430  0.34533800     0.25100
C1931       C  0.83765120  0.48173559  0.32271220    -0.18700
C1932       C  0.82181625  0.48499332  0.30150096    -0.07600
C1933       C  0.85122867  0.49360042  0.36617246    -0.14100
C1934       C  0.86798692  0.49259451  0.38215709    -0.13800
C1935       C  0.88930267  0.49179734  0.39996085     0.25000
C1936       C  0.91440842  0.49168566  0.39083481    -0.19200
C1937       C  0.93513474  0.49150348  0.40775474    -0.07700
C1938       C  0.93128620  0.49146501  0.43431483    -0.03800
C1939       C  0.90593679  0.49133979  0.44334442    -0.09100
C1940       C  0.88521354  0.49149653  0.42635210    -0.16700
H1941       H  0.77952675  0.52718836  0.32662105     0.11400
H1942       H  0.80738363  0.52133503  0.36407275     0.10700
H1943       H  0.85415636  0.46948310  0.32113725     0.10700
H1944       H  0.82657395  0.47531065  0.28392444     0.11200
H1945       H  0.91801473  0.49189237  0.37053397     0.11200
H1946       H  0.95421901  0.49157514  0.39995925     0.11200
H1947       H  0.90205180  0.49122253  0.46358445     0.11400
H1948       H  0.86598968  0.49153365  0.43383975     0.10200
C1949       C  0.25615026  0.48150339  0.71211259    -0.03600
C1950       C  0.24660900  0.50476436  0.70302962    -0.09400
C1951       C  0.22972935  0.50547872  0.68233074    -0.17100
C1952       C  0.22219839  0.48297257  0.67014127     0.25100
C1953       C  0.23330005  0.45989936  0.67774859    -0.18700
C1954       C  0.25005533  0.45915413  0.69864713    -0.07600
C1955       C  0.20149912  0.48348454  0.65163565    -0.14100
C1956       C  0.18334548  0.48465844  0.63726843    -0.13800
C1957       C  0.16139595  0.48653277  0.62034558     0.25000
C1958       C  0.13661903  0.48870692  0.63018594    -0.19200
C1959       C  0.11549701  0.49059834  0.61379954    -0.07700
C1960       C  0.11869002  0.49038811  0.58714916    -0.03800
C1961       C  0.14369840  0.48817530  0.57748882    -0.09100
C1962       C  0.16473930  0.48630473  0.59388623    -0.16700
H1963       H  0.25019240  0.52211789  0.71355855     0.11400
H1964       H  0.22133817  0.52347038  0.67685499     0.10700
H1965       H  0.22776214  0.44227586  0.66860895     0.10700
H1966       H  0.25641465  0.44088700  0.70570778     0.11200
H1967       H  0.13358780  0.48892946  0.65057897     0.11200
H1968       H  0.09666172  0.49216407  0.62203722     0.11200
H1969       H  0.14710441  0.48787470  0.55716573     0.11400
H1970       H  0.18367612  0.48466425  0.58586501     0.10200
C1971       C  0.80330850  0.49079970  0.71892311    -0.03600
C1972       C  0.82036769  0.51032789  0.72575992    -0.09400
C1973       C  0.84105477  0.51664073  0.70985098    -0.17100
C1974       C  0.84493062  0.50362026  0.68679425     0.25100
C1975       C  0.82702017  0.48537812  0.67918112    -0.18700
C1976       C  0.80648776  0.47902903  0.69502233    -0.07600
C1977       C  0.86795840  0.50721743  0.67167167    -0.14100
C1978       C  0.88659895  0.50734295  0.65788535    -0.13800
C1979       C  0.90728906  0.50472021  0.63954287     0.25000
C1980       C  0.90349786  0.48985764  0.61773571    -0.19200
C1981       C  0.92271877  0.48743941  0.59940410    -0.07700
C1982       C  0.94640333  0.49964332  0.60250815    -0.03800
C1983       C  0.95048607  0.51400154  0.62478667    -0.09100
C1984       C  0.93100732  0.51665409  0.64308783    -0.16700
H1985       H  0.81880501  0.51937849  0.74421540     0.11400
H1986       H  0.85464712  0.53082203  0.71610999     0.10700
H1987       H  0.82958288  0.47513598  0.66146153     0.10700
H1988       H  0.79390008  0.46374261  0.68929037     0.11200
H1989       H  0.88546243  0.48030473  0.61471423     0.11200
H1990       H  0.91896761  0.47606672  0.58261630     0.11200
H1991       H  0.96841294  0.52377527  0.62766567     0.11400
H1992       H  0.93438168  0.52818260  0.65984305     0.10200
C1993       C  0.97435180  0.68700508  0.28637564    -0.03600
C1994       C  0.96345789  0.68732282  0.31082810    -0.09400
C1995       C  0.97313087  0.67177855  0.32999763    -0.17100
C1996       C  0.99377840  0.65578852  0.32497233     0.25100
C1997       C  0.00474009  0.65525534  0.30071445    -0.18700
C1998       C  0.99507374  0.67080651  0.28147184    -0.07600
C1999       C  0.00305340  0.63941080  0.34462982    -0.14100
C2000       C  0.00902104  0.62528140  0.36154221    -0.13800
C2001       C  0.01392284  0.60770995  0.38172217     0.25000
C2002       C  0.01363412  0.58164580  0.37666312    -0.19200
C2003       C  0.01665947  0.56431291  0.39646059    -0.07700
C2004       C  0.01990722  0.57288082  0.42164656    -0.03800
C2005       C  0.02059736  0.59920160  0.42647115    -0.09100
C2006       C  0.01755946  0.61651250  0.40657879    -0.16700
H2007       H  0.94737133  0.69949404  0.31506099     0.11400
H2008       H  0.96444407  0.67214662  0.34870679     0.10700
H2009       H  0.02072198  0.64286293  0.29669431     0.10700
H2010       H  0.00405705  0.67052529  0.26291985     0.11200
H2011       H  0.01064390  0.57470823  0.35746577     0.11200
H2012       H  0.01601166  0.54421250  0.39203504     0.11200
H2013       H  0.02303440  0.60644076  0.44561931     0.11400
H2014       H  0.01762284  0.63671363  0.41063383     0.10200
C2015       C  0.04333334  0.41465582  0.59809380    -0.03600
C2016       C  0.04353823  0.38855631  0.59230666    -0.09400
C2017       C  0.05349175  0.37113909  0.60954732    -0.17100
C2018       C  0.06338002  0.37944827  0.63280535     0.25100
C2019       C  0.06281922  0.40527969  0.63909801    -0.18700
C2020       C  0.05288381  0.42285348  0.62179124    -0.07600
C2021       C  0.07178066  0.36073068  0.65070632    -0.14100
C2022       C  0.07352529  0.34182985  0.66340173    -0.13800
C2023       C  0.06768126  0.31792681  0.67505439     0.25000
C2024       C  0.07200523  0.31392270  0.70098342    -0.19200
C2025       C  0.06054895  0.29325663  0.71321303    -0.07700
C2026       C  0.04419848  0.27676380  0.69969829    -0.03800
C2027       C  0.04155577  0.28006364  0.67326972    -0.09100
C2028       C  0.05331464  0.30042831  0.66107164    -0.16700
H2029       H  0.03634974  0.38154972  0.57429651     0.11400
H2030       H  0.05337573  0.35108835  0.60476670     0.10700
H2031       H  0.07000540  0.41180418  0.65729498     0.10700
H2032       H  0.05315934  0.44283676  0.62676549     0.11200
H2033       H  0.08297352  0.32747868  0.71199749     0.11200
H2034       H  0.06337179  0.29099985  0.73349612     0.11200
H2035       H  0.02884473  0.26815378  0.66226716     0.11400
H2036       H  0.04961796  0.30358433  0.64101972     0.10200
C2037       C  0.03689836  0.70809116  0.69809601    -0.03600
C2038       C  0.05485404  0.71742671  0.68053171    -0.09400
C2039       C  0.06945955  0.70058018  0.66602450    -0.17100
C2040       C  0.06654078  0.67437213  0.66934742     0.25100
C2041       C  0.05015113  0.66502650  0.68806189    -0.18700
C2042       C  0.03534936  0.68171506  0.70227909    -0.07600
C2043       C  0.07562671  0.65696864  0.65054949    -0.14100
C2044       C  0.07600537  0.64063949  0.63461139    -0.13800
C2045       C  0.06897125  0.62084893  0.61733429     0.25000
C2046       C  0.06988699  0.59554650  0.62535312    -0.19200
C2047       C  0.05928370  0.57646780  0.61026710    -0.07700
C2048       C  0.04753762  0.58254390  0.58700176    -0.03800
C2049       C  0.04693558  0.60807570  0.57899600    -0.09100
C2050       C  0.05748768  0.62711552  0.59417327    -0.16700
H2051       H  0.05667709  0.73763961  0.67711914     0.11400
H2052       H  0.08183932  0.70792805  0.65126447     0.10700
H2053       H  0.04737014  0.64473105  0.69034821     0.10700
H2054       H  0.02136813  0.67375607  0.71515117     0.11200
H2055       H  0.07829163  0.59063254  0.64352845     0.11200
H2056       H  0.06048959  0.55696660  0.61674224     0.11200
H2057       H  0.03823506  0.61337590  0.56107950     0.11400
H2058       H  0.05617708  0.64676573  0.58813005     0.10200
C2059       C  0.96551146  0.28766824  0.19493735    -0.03600
C2060       C  0.98259554  0.28175325  0.17518235    -0.09400
C2061       C  0.98345643  0.29670277  0.15301478    -0.17100
C2062       C  0.96708857  0.31762340  0.15020770     0.25100
C2063       C  0.94927082  0.32285859  0.16934833    -0.18700
C2064       C  0.94856540  0.30813041  0.19154622    -0.07600
C2065       C  0.96949404  0.33481254  0.12872566    -0.14100
C2066       C  0.97125807  0.35066083  0.11204920    -0.13800
C2067       C  0.97301548  0.37060407  0.09304027     0.25000
C2068       C  0.97214512  0.39625342  0.10033505    -0.19200
C2069       C  0.97333845  0.41560670  0.08198382    -0.07700
C2070       C  0.97534337  0.40964446  0.05591409    -0.03800
C2071       C  0.97652051  0.38377493  0.04883382    -0.09100
C2072       C  0.97534632  0.36449747  0.06720241    -0.16700
H2073       H  0.99618274  0.26644691  0.17749940     0.11400
H2074       H  0.99744490  0.29244283  0.13847076     0.10700
H2075       H  0.93649574  0.33892719  0.16752823     0.10700
H2076       H  0.93535081  0.31325750  0.20652581     0.11200
H2077       H  0.97036805  0.40131803  0.12024707     0.11200
H2078       H  0.97239242  0.43520949  0.08821767     0.11200
H2079       H  0.97818270  0.37833143  0.02902211     0.11400
H2080       H  0.97609995  0.34480162  0.06119993     0.10200
C2081       C  0.97962162  0.08011520  0.38644438    -0.03600
C2082       C  0.97418713  0.07214336  0.36133684    -0.09400
C2083       C  0.97191111  0.08968102  0.34138869    -0.17100
C2084       C  0.97498306  0.11573073  0.34585733     0.25100
C2085       C  0.98018784  0.12401853  0.37078655    -0.18700
C2086       C  0.98238894  0.10641843  0.39092022    -0.07600
C2087       C  0.97289637  0.13369252  0.32479620    -0.14100
C2088       C  0.97148985  0.14860927  0.30713749    -0.13800
C2089       C  0.97078507  0.16767395  0.28700015     0.25000
C2090       C  0.99357373  0.17687682  0.27655781    -0.19200
C2091       C  0.99348826  0.19823226  0.26056371    -0.07700
C2092       C  0.97060325  0.21079629  0.25466811    -0.03800
C2093       C  0.94759650  0.20030752  0.26351424    -0.09100
C2094       C  0.94768289  0.17887944  0.27952668    -0.16700
H2095       H  0.97150366  0.05219795  0.35698836     0.11400
H2096       H  0.96775740  0.08283446  0.32238052     0.10700
H2097       H  0.98256134  0.14410604  0.37468192     0.10700
H2098       H  0.98633624  0.11339312  0.40991014     0.11200
H2099       H  0.01161375  0.16856350  0.28207857     0.11200
H2100       H  0.01151322  0.20637504  0.25471801     0.11200
H2101       H  0.92978294  0.21006686  0.25997872     0.11400
H2102       H  0.92985244  0.17209595  0.28736092     0.10200
C2103       C  0.98329360  0.29704377  0.28771184    -0.03600
C2104       C  0.96641219  0.31632732  0.29519312    -0.09400
C2105       C  0.97037014  0.32931609  0.31806859    -0.17100
C2106       C  0.99129145  0.32318889  0.33342050     0.25100
C2107       C  0.00867302  0.30468813  0.32558022    -0.18700
C2108       C  0.00466068  0.29160161  0.30286462    -0.07600
C2109       C  0.99523943  0.33618572  0.35701535    -0.14100
C2110       C  0.99904470  0.34872192  0.37572394    -0.13800
C2111       C  0.00371587  0.36712087  0.39518842     0.25000
C2112       C  0.00420943  0.36037835  0.42095171    -0.19200
C2113       C  0.00812207  0.37912545  0.43945797    -0.07700
C2114       C  0.01152978  0.40467838  0.43218199    -0.03800
C2115       C  0.01114289  0.41099400  0.40619424    -0.09100
C2116       C  0.00731822  0.39234229  0.38789751    -0.16700
H2117       H  0.94974814  0.32063621  0.28384159     0.11400
H2118       H  0.95696972  0.34383916  0.32395168     0.10700
H2119       H  0.02509797  0.30012756  0.33719627     0.10700
H2120       H  0.01797357  0.27688564  0.29729402     0.11200
H2121       H  0.00140722  0.34079841  0.42669379     0.11200
H2122       H  0.00825801  0.37368064  0.45933343     0.11200
H2123       H  0.01377339  0.43040333  0.39986812     0.11400
H2124       H  0.00698015  0.39765657  0.36797334     0.10200
loop_ 
_geom_bond_atom_site_label_1 
_geom_bond_atom_site_label_2 
_geom_bond_distance 
_geom_bond_site_symmetry_2 
_ccdc_geom_bond_type 
C1            C2   1.408       .  A
C1            C6   1.421       .  A
C1         C2059   1.491       .  S
C2            C3   1.399       .  A
C2            H7   1.084       .  S
C3            C4   1.394       .  A
C3         C2103   1.473       .  S
C4            C5   1.396       .  A
C4            H8   1.085       .  S
C5            C6   1.415       .  A
C5         C2092   1.485       .  S
C6            H9   1.083       .  S
O10         Zr46   2.424       .  S
O10          C21   1.290       .  A
O11         Zr45   2.432       .  S
O11          C22   1.292       .  A
O12         Zr18   2.470   1_655  S
O12          C23   1.299       .  A
O13         Zr18   2.475       .  S
O13          C24   1.299       .  A
O14         Zr48   2.434       .  S
O14          C24   1.292       .  A
O15         Zr47   2.454       .  S
O15          C23   1.295       .  A
O16         Zr18   2.424       .  S
O16          C22   1.291       .  A
O17         Zr18   2.426       .  S
O17          C21   1.291       .  A
Zr18         O19   2.344       .  S
Zr18         O20   2.340   1_455  S
Zr18         O28   2.346       .  S
Zr18         O26   2.345   1_455  S
O19         Zr45   2.345       .  S
O19         Zr48   2.341       .  S
O20         Zr46   2.342   1_655  S
O20         Zr47   2.338       .  S
C21        C2114   1.474       .  S
C22        C2004   1.477       .  S
C23        C1938   1.503       .  S
C24        C1916   1.499       .  S
H25          O26   0.966       .  S
O26         Zr45   2.344   1_655  S
O26         Zr47   2.344       .  S
H27          O28   0.966       .  S
O28         Zr46   2.351       .  S
O28         Zr48   2.344       .  S
O29         Zr45   2.414       .  S
O29          C52   1.289       .  A
O30         Zr46   2.425       .  S
O30          C53   1.291       .  A
O31         Zr47   2.441       .  S
O31          C54   1.293       .  A
O32         Zr48   2.443       .  S
O32          C55   1.293       .  A
O33         Zr48   2.438       .  S
O33          C56   1.293       .  A
O34         Zr47   2.440       .  S
O34          C57   1.293       .  A
O35         Zr49   2.476   1_655  S
O35          C58   1.299       .  A
O36         Zr49   2.474       .  S
O36          C59   1.299       .  A
O37         Zr47   2.439       .  S
O37          C58   1.293       .  A
O38         Zr48   2.445       .  S
O38          C59   1.294       .  A
O39         Zr45   2.471   1_655  S
O39          C54   1.299       .  A
O40         Zr46   2.478   1_655  S
O40          C57   1.300       .  A
O41         Zr46   2.481       .  S
O41          C56   1.300       .  A
O42         Zr45   2.466       .  S
O42          C55   1.298       .  A
O43         Zr49   2.443       .  S
O43          C52   1.294       .  A
O44         Zr49   2.426       .  S
O44          C53   1.291       .  A
Zr45         O51   2.350       .  S
Zr45         O63   2.344       .  S
Zr46         O50   2.336       .  S
Zr46         O61   2.352       .  S
Zr47         O51   2.350   1_655  S
Zr47         O61   2.351   1_655  S
Zr48         O50   2.333       .  S
Zr48         O63   2.333       .  S
Zr49         O50   2.343       .  S
Zr49         O51   2.348       .  S
Zr49         O63   2.338       .  S
Zr49         O61   2.353       .  S
C52        C2048   1.474       .  S
C53        C2015   1.476       .  S
C54        C1883   1.500       .  S
C55        C1817   1.496       .  S
C56        C1861   1.502       .  S
C57        C1839   1.498       .  S
C58        C1982   1.494       .  S
C59        C1960   1.502       .  S
H60          O61   0.964   1_655  S
H62          O63   0.966       .  S
C64          C65   1.417       .  A
C64          C69   1.400   1_655  A
C64        C1773   1.486       .  S
C65          C66   1.417       .  A
C65          H70   1.083       .  S
C66          C67   1.403   1_655  A
C66        C1806   1.490       .  S
C67          C68   1.399       .  A
C67          H71   1.083       .  S
C68          C69   1.397       .  A
C68        C2037   1.482       .  S
C69          H72   1.084       .  S
C73          C74   1.399   1_655  A
C73          C78   1.415       .  A
C73        C1740   1.487       .  S
C74          C75   1.400       .  A
C74          H79   1.084       .  S
C75          C76   1.405       .  A
C75        C2026   1.488       .  S
C76          C77   1.405   1_455  A
C76          H80   1.084       .  S
C77          C78   1.417       .  A
C77        C1751   1.489       .  S
C78          H81   1.083       .  S
C82          C83   1.404       .  A
C82          C87   1.421       .  A
C82        C1685   1.492       .  S
C83          C84   1.400       .  A
C83          H88   1.084       .  S
C84          C85   1.396       .  A
C84        C1993   1.478       .  S
C85          C86   1.399       .  A
C85          H89   1.085       .  S
C86          C87   1.419       .  A
C86        C1718   1.490       .  S
C87          H90   1.083       .  S
O91        Zr127   2.445   1_545  S
O91         C102   1.294       .  A
O92        Zr126   2.434   1_545  S
O92         C103   1.292       .  A
O93         Zr99   2.430       .  S
O93         C104   1.292       .  A
O94         Zr99   2.452   1_455  S
O94         C105   1.295       .  A
O95        Zr129   2.403   1_545  S
O95         C105   1.287       .  A
O96        Zr128   2.435   1_545  S
O96         C104   1.292       .  A
O97         Zr99   2.482       .  S
O97         C103   1.301       .  A
O98         Zr99   2.475       .  S
O98         C102   1.299       .  A
Zr99        O100   2.340   1_655  S
Zr99        O101   2.337       .  S
Zr99        O109   2.354   1_655  S
Zr99        O107   2.358       .  S
O100       Zr126   2.337   1_445  S
O100       Zr129   2.339   1_545  S
O101       Zr127   2.329   1_545  S
O101       Zr128   2.342   1_545  S
C102       C2081   1.504       .  S
C103       C1762   1.499       .  S
C104       C1641   1.477       .  S
C105       C1674   1.476       .  S
H106        O107   0.963       .  S
O107       Zr126   2.357   1_545  S
O107       Zr128   2.356   1_545  S
H108        O109   0.966       .  S
O109       Zr127   2.343   1_445  S
O109       Zr129   2.353   1_545  S
O110       Zr126   2.448       .  S
O110        C133   1.294       .  A
O111       Zr127   2.441       .  S
O111        C134   1.293       .  A
O112       Zr128   2.490       .  S
O112        C135   1.302       .  A
O113       Zr129   2.473       .  S
O113        C136   1.299       .  A
O114       Zr129   2.467       .  S
O114        C137   1.298       .  A
O115       Zr128   2.478       .  S
O115        C138   1.300       .  A
O116       Zr130   2.424       .  S
O116        C139   1.291       .  A
O117       Zr130   2.450   1_455  S
O117        C140   1.294       .  A
O118       Zr128   2.443       .  S
O118        C139   1.293       .  A
O119       Zr129   2.424       .  S
O119        C140   1.290       .  A
O120       Zr126   2.442       .  S
O120        C135   1.294       .  A
O121       Zr127   2.436       .  S
O121        C138   1.292       .  A
O122       Zr127   2.436   1_455  S
O122        C137   1.292       .  A
O123       Zr126   2.458   1_455  S
O123        C136   1.296       .  A
O124       Zr130   2.464       .  S
O124        C133   1.298       .  A
O125       Zr130   2.463       .  S
O125        C134   1.298       .  A
Zr126       O132   2.348       .  S
Zr126       O144   2.347   1_655  S
Zr127       O131   2.344   1_655  S
Zr127       O142   2.336       .  S
Zr128       O132   2.354       .  S
Zr128       O142   2.343       .  S
Zr129       O131   2.338       .  S
Zr129       O144   2.343       .  S
Zr130       O131   2.345   1_655  S
Zr130       O132   2.353       .  S
Zr130       O144   2.344   1_655  S
Zr130       O142   2.343       .  S
C133       C1795   1.497       .  S
C134       C1707   1.492       .  S
C135       C1509   1.507   1_565  S
C136       C1531   1.507       .  S
C137       C1564   1.494       .  S
C138       C1586   1.500       .  S
C139       C1619   1.471       .  S
C140       C1597   1.481       .  S
H141        O142   0.966       .  S
H143        O144   0.966       .  S
C145        C146   1.399       .  A
C145        C150   1.413       .  A
C145       C1872   1.486       .  S
C146        C147   1.401       .  A
C146        H151   1.085       .  S
C147        C148   1.400       .  A
C147       C1663   1.480       .  S
C148        C149   1.405       .  A
C148        H152   1.084       .  S
C149        C150   1.416       .  A
C149       C1487   1.483       .  S
C150        H153   1.083       .  S
C154        C155   1.415       .  A
C154        C159   1.400       .  A
C154       C1476   1.484       .  S
C155        C156   1.417       .  A
C155        H160   1.083       .  S
C156        C157   1.403       .  A
C156       C1850   1.490       .  S
C157        C158   1.402       .  A
C157        H161   1.083       .  S
C158        C159   1.402       .  A
C158       C1652   1.490       .  S
C159        H162   1.083       .  S
C163        C164   1.398       .  A
C163        C168   1.416       .  A
C163       C1454   1.487       .  S
C164        C165   1.399       .  A
C164        H169   1.083       .  S
C165        C166   1.404       .  A
C165       C1630   1.491       .  S
C166        C167   1.406       .  A
C166        H170   1.083       .  S
C167        C168   1.418       .  A
C167       C1894   1.490       .  S
C168        H171   1.083       .  S
C172        C173   1.417       .  A
C172        C177   1.398       .  A
C172       C1828   1.483       .  S
C173        C174   1.421       .  A
C173        H178   1.083       .  S
C174        C175   1.409       .  A
C174       C1421   1.499       .  S
C175        C176   1.398       .  A
C175        H179   1.083       .  S
C176        C177   1.392       .  A
C176       C1608   1.477       .  S
C177        H180   1.085       .  S
C181        C182   1.407       .  A
C181        C186   1.422       .  A
C181       C1377   1.498       .  S
C182        C183   1.400       .  A
C182        H187   1.084       .  S
C183        C184   1.396       .  A
C183       C1399   1.479       .  S
C184        C185   1.397       .  A
C184        H188   1.085       .  S
C185        C186   1.419       .  A
C185       C1575   1.486       .  S
C186        H189   1.083       .  S
O190       Zr226   2.448       .  S
O190        C201   1.294       .  A
O191       Zr225   2.447       .  S
O191        C202   1.294       .  A
O192       Zr198   2.437       .  S
O192        C203   1.292       .  A
O193       Zr198   2.412       .  S
O193        C204   1.289       .  A
O194       Zr228   2.448       .  S
O194        C204   1.294       .  A
O195       Zr227   2.421       .  S
O195        C203   1.290       .  A
O196       Zr198   2.456       .  S
O196        C202   1.295       .  A
O197       Zr198   2.439   1_545  S
O197        C201   1.293       .  A
Zr198       O199   2.344       .  S
Zr198       O200   2.338   1_565  S
Zr198       O208   2.348   1_565  S
Zr198       O206   2.332       .  S
O199       Zr225   2.342       .  S
O199       Zr228   2.359       .  S
O200       Zr226   2.335       .  S
O200       Zr227   2.333   1_545  S
C201       C1498   1.489       .  S
C202       C1432   1.497       .  S
C203       C1322   1.476       .  S
C204       C1355   1.475       .  S
H205        O206   0.966       .  S
O206       Zr225   2.334       .  S
O206       Zr227   2.344       .  S
H207        O208   0.965       .  S
O208       Zr226   2.337       .  S
O208       Zr228   2.343   1_545  S
O209       Zr225   2.435       .  S
O209        C232   1.292       .  A
O210       Zr226   2.426       .  S
O210        C233   1.291       .  A
O211       Zr227   2.463       .  S
O211        C234   1.297       .  A
O212       Zr228   2.450       .  S
O212        C235   1.295       .  A
O213       Zr228   2.477   1_545  S
O213        C236   1.300       .  A
O214       Zr227   2.471   1_545  S
O214        C237   1.299       .  A
O215       Zr229   2.449       .  S
O215        C238   1.294       .  A
O216       Zr229   2.422       .  S
O216        C239   1.290       .  A
O217       Zr227   2.408       .  S
O217        C238   1.288       .  A
O218       Zr228   2.457       .  S
O218        C239   1.297       .  A
O219       Zr225   2.437       .  S
O219        C234   1.293       .  A
O220       Zr226   2.447       .  S
O220        C237   1.294       .  A
O221       Zr226   2.436       .  S
O221        C236   1.292       .  A
O222       Zr225   2.452       .  S
O222        C235   1.295       .  A
O223       Zr229   2.493       .  S
O223        C232   1.303       .  A
O224       Zr229   2.479   1_545  S
O224        C233   1.300       .  A
Zr225       O231   2.349       .  S
Zr225       O243   2.321       .  S
Zr226       O230   2.353       .  S
Zr226       O241   2.349       .  S
Zr227       O231   2.345       .  S
Zr227       O241   2.345   1_565  S
Zr228       O230   2.349   1_565  S
Zr228       O243   2.338       .  S
Zr229       O230   2.360   1_565  S
Zr229       O231   2.347       .  S
Zr229       O243   2.336       .  S
Zr229       O241   2.353   1_565  S
C232       C1443   1.503       .  S
C233       C1465   1.494       .  S
C234       C1245   1.494       .  S
C235       C1289   1.494       .  S
C236       C1278   1.500       .  S
C237       C1223   1.502       .  S
C238       C1410   1.479       .  S
C239       C1333   1.483       .  S
H240        O241   0.965       .  S
H242        O243   0.962       .  S
C244        C245   1.396       .  A
C244        C249   1.416       .  A
C244       C1201   1.484   1_565  S
C245        C246   1.392       .  A
C245        H250   1.086       .  S
C246        C247   1.400       .  A
C246       C1366   1.474       .  S
C247        C248   1.412       .  A
C247        H251   1.084       .  S
C248        C249   1.422       .  A
C248       C1542   1.500       .  S
C249        H252   1.083   1_565  S
C253        C254   1.423   1_565  A
C253        C258   1.403       .  A
C253       C1179   1.495   1_565  S
C254        C255   1.421   1_545  A
C254        H259   1.083       .  S
C255        C256   1.399       .  A
C255       C1520   1.496   1_565  S
C256        C257   1.405       .  A
C256        H260   1.082       .  S
C257        C258   1.401       .  A
C257       C1344   1.496       .  S
C258        H261   1.082       .  S
C262        C263   1.398       .  A
C262        C267   1.412       .  A
C262       C1157   1.481       .  S
C263        C264   1.397       .  A
C263        H268   1.084       .  S
C264        C265   1.400       .  A
C264       C1311   1.479       .  S
C265        C266   1.405       .  A
C265        H269   1.084       .  S
C266        C267   1.413       .  A
C266       C1553   1.483       .  S
C267        H270   1.083       .  S
O271       Zr307   2.461   1_554  S
O271        C282   1.297       .  A
O272       Zr306   2.436   1_554  S
O272        C283   1.292       .  A
O273       Zr279   2.423   1_545  S
O273        C284   1.291       .  A
O274       Zr279   2.442       .  S
O274        C285   1.293       .  A
O275       Zr309   2.442   1_554  S
O275        C285   1.293       .  A
O276       Zr308   2.444   1_554  S
O276        C284   1.294       .  A
O277       Zr279   2.460       .  S
O277        C283   1.297       .  A
O278       Zr279   2.466       .  S
O278        C282   1.298       .  A
Zr279       O280   2.340       .  S
Zr279       O281   2.346   1_564  S
Zr279       O289   2.343   1_554  S
Zr279       O287   2.354   1_565  S
O280       Zr306   2.341   1_554  S
O280       Zr309   2.340   1_554  S
O281       Zr307   2.335   1_545  S
O281       Zr308   2.339       .  S
C282       C1388   1.504       .  S
C283       C1168   1.492       .  S
C284       C1135   1.481       .  S
C285       C1113   1.488       .  S
H286        O287   0.967       .  S
O287       Zr306   2.352   1_544  S
O287       Zr308   2.354   1_554  S
H288        O289   0.966   1_554  S
O289       Zr307   2.350       .  S
O289       Zr309   2.341       .  S
O290       Zr306   2.447       .  S
O290        C313   1.294       .  A
O291       Zr307   2.438       .  S
O291        C314   1.293       .  A
O292       Zr308   2.470       .  S
O292        C315   1.299       .  A
O293       Zr309   2.455       .  S
O293        C316   1.296       .  A
O294       Zr309   2.463       .  S
O294        C317   1.297       .  A
O295       Zr308   2.482       .  S
O295        C318   1.301       .  A
O296       Zr310   2.438   1_545  S
O296        C319   1.292       .  A
O297       Zr310   2.450       .  S
O297        C320   1.295       .  A
O298       Zr308   2.435       .  S
O298        C319   1.293       .  A
O299       Zr309   2.418       .  S
O299        C320   1.290       .  A
O300       Zr306   2.439   1_545  S
O300        C315   1.293       .  A
O301       Zr307   2.443   1_545  S
O301        C318   1.293       .  A
O302       Zr307   2.431       .  S
O302        C317   1.292       .  A
O303       Zr306   2.448       .  S
O303        C316   1.294       .  A
O304       Zr310   2.466       .  S
O304        C313   1.297       .  A
O305       Zr310   2.476       .  S
O305        C314   1.300       .  A
Zr306       O312   2.325   1_565  S
Zr306       O324   2.340       .  S
Zr307       O311   2.349       .  S
Zr307       O322   2.352   1_565  S
Zr308       O312   2.336       .  S
Zr308       O322   2.349       .  S
Zr309       O311   2.351       .  S
Zr309       O324   2.349       .  S
Zr310       O311   2.349       .  S
Zr310       O312   2.336   1_565  S
Zr310       O324   2.346       .  S
Zr310       O322   2.356   1_565  S
C313       C1212   1.496       .  S
C314       C1190   1.496       .  S
C315       C1047   1.498       .  S
C316       C1014   1.492       .  S
C317       C1025   1.491       .  S
C318        C992   1.503       .  S
C319       C1069   1.482       .  S
C320       C1091   1.480       .  S
H321        O322   0.964       .  S
H323        O324   0.965       .  S
C325        C326   1.419       .  A
C325        C330   1.409       .  A
C325       C1234   1.494       .  S
C326        C327   1.417       .  A
C326        H331   1.083       .  S
C327        C328   1.400       .  A
C327        C959   1.485       .  S
C328        C329   1.393       .  A
C328        H332   1.085       .  S
C329        C330   1.398       .  A
C329       C1146   1.473       .  S
C330        H333   1.084       .  S
C334        C335   1.416       .  A
C334        C339   1.397       .  A
C334        C937   1.483       .  S
C335        C336   1.421       .  A
C335        H340   1.083       .  S
C336        C337   1.413       .  A
C336       C1256   1.501       .  S
C337        C338   1.401       .  A
C337        H341   1.083       .  S
C338        C339   1.393       .  A
C338       C1124   1.484       .  S
C339        H342   1.085       .  S
C343        C344   1.417       .  A
C343        C348   1.405       .  A
C343        C915   1.490       .  S
C344        C345   1.415       .  A
C344        H349   1.083       .  S
C345        C346   1.399       .  A
C345       C1300   1.486       .  S
C346        C347   1.399       .  A
C346        H350   1.084       .  S
C347        C348   1.402       .  A
C347       C1102   1.486       .  S
C348        H351   1.084       .  S
C352        C353   1.401       .  A
C352        C357   1.415       .  A
C352       C1267   1.488       .  S
C353        C354   1.403       .  A
C353        H358   1.083       .  S
C354        C355   1.403       .  A
C354       C1080   1.491       .  S
C355        C356   1.404       .  A
C355        H359   1.084       .  S
C356        C357   1.416       .  A
C356        C904   1.490       .  S
C357        H360   1.083       .  S
O361       Zr397   2.440   1_554  S
O361        C372   1.293       .  A
O362       Zr396   2.478   1_554  S
O362        C373   1.300       .  A
O363       Zr369   2.451   1_455  S
O363        C374   1.295       .  A
O364       Zr369   2.420       .  S
O364        C375   1.290       .  A
O365       Zr399   2.445   1_554  S
O365        C375   1.294       .  A
O366       Zr398   2.425   1_554  S
O366        C374   1.290       .  A
O367       Zr369   2.471       .  S
O367        C373   1.299       .  A
O368       Zr369   2.462       .  S
O368        C372   1.297       .  A
Zr369       O370   2.346   1_554  S
Zr369       O371   2.339   1_654  S
Zr369       O379   2.358   1_554  S
Zr369       O377   2.344   1_654  S
O370       Zr396   2.338       .  S
O370       Zr399   2.347       .  S
O371       Zr397   2.335   1_455  S
O371       Zr398   2.333       .  S
C372       C2070   1.495       .  S
C373       C1696   1.513       .  S
C374        C849   1.485       .  S
C375        C871   1.477       .  S
H376        O377   0.966   1_554  S
O377       Zr396   2.348   1_455  S
O377       Zr398   2.349       .  S
H378        O379   0.965   1_554  S
O379       Zr397   2.352       .  S
O379       Zr399   2.359       .  S
O380       Zr396   2.435       .  S
O380        C403   1.293       .  A
O381       Zr397   2.433       .  S
O381        C404   1.292       .  A
O382       Zr398   2.446       .  S
O382        C405   1.294       .  A
O383       Zr399   2.478       .  S
O383        C406   1.300       .  A
O384       Zr399   2.458       .  S
O384        C407   1.296       .  A
O385       Zr398   2.464       .  S
O385        C408   1.297       .  A
O386       Zr400   2.454   1_455  S
O386        C409   1.294       .  A
O387       Zr400   2.435       .  S
O387        C410   1.293       .  A
O388       Zr398   2.406       .  S
O388        C409   1.287       .  A
O389       Zr399   2.444       .  S
O389        C410   1.294       .  A
O390       Zr396   2.458   1_455  S
O390        C405   1.297       .  A
O391       Zr397   2.448   1_455  S
O391        C408   1.294       .  A
O392       Zr397   2.448       .  S
O392        C407   1.294       .  A
O393       Zr396   2.440       .  S
O393        C406   1.293       .  A
O394       Zr400   2.487       .  S
O394        C403   1.302       .  A
O395       Zr400   2.479       .  S
O395        C404   1.300       .  A
Zr396       O402   2.349   1_655  S
Zr396       O414   2.368       .  S
Zr397       O401   2.318       .  S
Zr397       O412   2.351   1_655  S
Zr398       O402   2.343       .  S
Zr398       O412   2.341       .  S
Zr399       O401   2.325       .  S
Zr399       O414   2.351       .  S
Zr400       O401   2.329       .  S
Zr400       O402   2.345   1_655  S
Zr400       O414   2.362       .  S
Zr400       O412   2.353   1_655  S
C403       C1784   1.495       .  S
C404       C1729   1.500       .  S
C405        C772   1.496       .  S
C406        C717   1.500       .  S
C407        C739   1.497       .  S
C408        C794   1.500       .  S
C409        C827   1.470       .  S
C410        C805   1.485       .  S
H411        O412   0.966       .  S
H413        O414   0.963       .  S
C415        C416   1.419       .  A
C415        C420   1.407       .  A
C415       C1927   1.492       .  S
C416        C417   1.415       .  A
C416        H421   1.083       .  S
C417        C418   1.397       .  A
C417        C706   1.483       .  S
C418        C419   1.396       .  A
C418        H422   1.085       .  S
C419        C420   1.400       .  A
C419        C882   1.478       .  S
C420        H423   1.084       .  S
C424        C425   1.404       .  A
C424        C429   1.418       .  A
C424        C673   1.489       .  S
C425        C426   1.398       .  A
C425        H430   1.084       .  S
C426        C427   1.397       .  A
C426        C860   1.482       .  S
C427        C428   1.406       .  A
C427        H431   1.084       .  S
C428        C429   1.419       .  A
C428       C1905   1.496       .  S
C429        H432   1.083       .  S
C433        C434   1.406       .  A
C433        C438   1.421       .  A
C433        C651   1.493       .  S
C434        C435   1.398       .  A
C434        H439   1.084       .  S
C435        C436   1.395       .  A
C435        C838   1.477       .  S
C436        C437   1.398       .  A
C436        H440   1.085       .  S
C437        C438   1.419       .  A
C437       C1949   1.486       .  S
C438        H441   1.083       .  S
C442        C443   1.406       .  A
C442        C447   1.420       .  A
C442       C1971   1.498       .  S
C443        C444   1.403       .  A
C443        H448   1.082       .  S
C444        C445   1.404       .  A
C444        C816   1.496       .  S
C445        C446   1.401       .  A
C445        H449   1.082       .  S
C446        C447   1.418       .  A
C446        C629   1.493       .  S
C447        H450   1.083       .  S
C451        C452   1.419       .  A
C451        C456   1.413       .  A
C451        C783   1.498       .  S
C452        C453   1.413       .  A
C452        H457   1.083       .  S
C453        C454   1.396       .  A
C453       C1058   1.482       .  S
C454        C455   1.394       .  A
C454        H458   1.085       .  S
C455        C456   1.404       .  A
C455        C607   1.483       .  S
C456        H459   1.083       .  S
O460       Zr496   2.438       .  S
O460        C471   1.293       .  A
O461       Zr495   2.452       .  S
O461        C472   1.295       .  A
O462       Zr468   2.432       .  S
O462        C473   1.292       .  A
O463       Zr468   2.419       .  S
O463        C474   1.290       .  A
O464       Zr498   2.454       .  S
O464        C474   1.295       .  A
O465       Zr497   2.409       .  S
O465        C473   1.288       .  A
O466       Zr468   2.470   1_556  S
O466        C472   1.299       .  A
O467       Zr468   2.475       .  S
O467        C471   1.299       .  A
Zr468       O469   2.355   1_554  S
Zr468       O470   2.344       .  S
Zr468       O478   2.341       .  S
Zr468       O476   2.342   1_554  S
O469       Zr495   2.350       .  S
O469       Zr498   2.355   1_556  S
O470       Zr496   2.335       .  S
O470       Zr497   2.342       .  S
C471        C970   1.499       .  S
C472        C893   1.502       .  S
C473        C618   1.472       .  S
C474        C552   1.482       .  S
H475        O476   0.965       .  S
O476       Zr495   2.337       .  S
O476       Zr497   2.337   1_556  S
H477        O478   0.965       .  S
O478       Zr496   2.338       .  S
O478       Zr498   2.350       .  S
O479       Zr495   2.436       .  S
O479        C502   1.293       .  A
O480       Zr496   2.429       .  S
O480        C503   1.291       .  A
O481       Zr497   2.460   1_556  S
O481        C504   1.297       .  A
O482       Zr498   2.486   1_556  S
O482        C505   1.301       .  A
O483       Zr498   2.459       .  S
O483        C506   1.296       .  A
O484       Zr497   2.456       .  S
O484        C507   1.296       .  A
O485       Zr499   2.449       .  S
O485        C508   1.295       .  A
O486       Zr499   2.418       .  S
O486        C509   1.290       .  A
O487       Zr497   2.415       .  S
O487        C508   1.289       .  A
O488       Zr498   2.447       .  S
O488        C509   1.294       .  A
O489       Zr495   2.450       .  S
O489        C504   1.295       .  A
O490       Zr496   2.452       .  S
O490        C507   1.295       .  A
O491       Zr496   2.439       .  S
O491        C506   1.293       .  A
O492       Zr495   2.433       .  S
O492        C505   1.292       .  A
O493       Zr499   2.478   1_556  S
O493        C502   1.300       .  A
O494       Zr499   2.478       .  S
O494        C503   1.300       .  A
Zr495       O501   2.346       .  S
Zr495       O513   2.353       .  S
Zr496       O500   2.336       .  S
Zr496       O511   2.340       .  S
Zr497       O501   2.339   1_554  S
Zr497       O511   2.337       .  S
Zr498       O500   2.347       .  S
Zr498       O513   2.350   1_554  S
Zr499       O500   2.341       .  S
Zr499       O501   2.343   1_554  S
Zr499       O513   2.358   1_554  S
Zr499       O511   2.342       .  S
C502        C926   1.498       .  S
C503        C948   1.495       .  S
C504        C662   1.498       .  S
C505        C640   1.503       .  S
C506        C695   1.486       .  S
C507        C684   1.498       .  S
C508        C574   1.480       .  S
C509        C585   1.480       .  S
H510        O511   0.967       .  S
H512        O513   0.964       .  S
C514        C515   1.417       .  A
C514        C519   1.404   1_556  A
C514       C1036   1.487       .  S
C515        C516   1.415       .  A
C515        H520   1.083       .  S
C516        C517   1.400       .  A
C516        C728   1.487       .  S
C517        C518   1.402   1_556  A
C517        H521   1.084   1_556  S
C518        C519   1.403       .  A
C518        C596   1.489       .  S
C519        H522   1.084       .  S
C523        C524   1.412       .  A
C523        C528   1.396       .  A
C523       C1003   1.476       .  S
C524        C525   1.415       .  A
C524        H529   1.083       .  S
C525        C526   1.406       .  A
C525        C761   1.483       .  S
C526        C527   1.400       .  A
C526        H530   1.084       .  S
C527        C528   1.393       .  A
C527        C563   1.475       .  S
C528        H531   1.085       .  S
C532        C533   1.400       .  A
C532        C537   1.416       .  A
C532        C750   1.485       .  S
C533        C534   1.402   1_556  A
C533        H538   1.084   1_556  S
C534        C535   1.400   1_554  A
C534        C541   1.487       .  S
C535        C536   1.401       .  A
C535        H539   1.084   1_556  S
C536        C537   1.417       .  A
C536        C981   1.485       .  S
C537        H540   1.083       .  S
C541        C542   1.409       .  A
C541        C546   1.409       .  A
C542        C543   1.397       .  A
C542        H555   1.083       .  S
C543        C544   1.397       .  A
C543        H556   1.083       .  S
C544        C545   1.398       .  A
C544        C547   1.433       .  S
C545        C546   1.393       .  A
C545        H557   1.084       .  S
C546        H558   1.082       .  S
C547        C548   1.203       .  T
C548        C549   1.434       .  S
C549        C550   1.394       .  A
C549        C554   1.402       .  A
C550        C551   1.389       .  A
C550        H559   1.084       .  S
C551        C552   1.408       .  A
C551        H560   1.083       .  S
C552        C553   1.409       .  A
C553        C554   1.404       .  A
C553        H561   1.083       .  S
C554        H562   1.083       .  S
C563        C564   1.406       .  A
C563        C568   1.404       .  A
C564        C565   1.394       .  A
C564        H577   1.083       .  S
C565        C566   1.398       .  A
C565        H578   1.084       .  S
C566        C567   1.400   1_556  A
C566        C569   1.434       .  S
C567        C568   1.397   1_554  A
C567        H579   1.083       .  S
C568        H580   1.083   1_556  S
C569        C570   1.202       .  T
C570        C571   1.434   1_556  S
C571        C572   1.396       .  A
C571        C576   1.399       .  A
C572        C573   1.393       .  A
C572        H581   1.084       .  S
C573        C574   1.409       .  A
C573        H582   1.083       .  S
C574        C575   1.407       .  A
C575        C576   1.398       .  A
C575        H583   1.083       .  S
C576        H584   1.083       .  S
C585        C586   1.408       .  A
C585        C590   1.408       .  A
C586        C587   1.399       .  A
C586        H599   1.083       .  S
C587        C588   1.399       .  A
C587        H600   1.083       .  S
C588        C589   1.398       .  A
C588        C591   1.435       .  S
C589        C590   1.394       .  A
C589        H601   1.084       .  S
C590        H602   1.083       .  S
C591        C592   1.203       .  T
C592        C593   1.434       .  S
C593        C594   1.397       .  A
C593        C598   1.398       .  A
C594        C595   1.393       .  A
C594        H603   1.084       .  S
C595        C596   1.407       .  A
C595        H604   1.082       .  S
C596        C597   1.411       .  A
C597        C598   1.399       .  A
C597        H605   1.083       .  S
C598        H606   1.083       .  S
C607        C608   1.406       .  A
C607        C612   1.409   1_556  A
C608        C609   1.399       .  A
C608        H621   1.083       .  S
C609        C610   1.400       .  A
C609        H622   1.084       .  S
C610        C611   1.395   1_556  A
C610        C613   1.431       .  S
C611        C612   1.393       .  A
C611        H623   1.084       .  S
C612        H624   1.083       .  S
C613        C614   1.200   1_556  T
C614        C615   1.429       .  S
C615        C616   1.399       .  A
C615        C620   1.395       .  A
C616        C617   1.397       .  A
C616        H625   1.083       .  S
C617        C618   1.407       .  A
C617        H626   1.083       .  S
C618        C619   1.408       .  A
C619        C620   1.389       .  A
C619        H627   1.083       .  S
C620        H628   1.084       .  S
C629        C630   1.409       .  A
C629        C634   1.407       .  A
C630        C631   1.404       .  A
C630        H643   1.083       .  S
C631        C632   1.402       .  A
C631        H644   1.083       .  S
C632        C633   1.407       .  A
C632        C635   1.460       .  S
C633        C634   1.409       .  A
C633        H645   1.083       .  S
C634        H646   1.083       .  S
C635        C636   1.218       .  T
C636        C637   1.460       .  S
C637        C638   1.407       .  A
C637        C642   1.399       .  A
C638        C639   1.412       .  A
C638        H647   1.083       .  S
C639        C640   1.410       .  A
C639        H648   1.083       .  S
C640        C641   1.413       .  A
C641        C642   1.401       .  A
C641        H649   1.083       .  S
C642        H650   1.084       .  S
C651        C652   1.409       .  A
C651        C656   1.406       .  A
C652        C653   1.402       .  A
C652        H665   1.083       .  S
C653        C654   1.401       .  A
C653        H666   1.084       .  S
C654        C655   1.406       .  A
C654        C657   1.456       .  S
C655        C656   1.408       .  A
C655        H667   1.083       .  S
C656        H668   1.083       .  S
C657        C658   1.216       .  T
C658        C659   1.456       .  S
C659        C660   1.403       .  A
C659        C664   1.402       .  A
C660        C661   1.406       .  A
C660        H669   1.083       .  S
C661        C662   1.412       .  A
C661        H670   1.083       .  S
C662        C663   1.410       .  A
C663        C664   1.403       .  A
C663        H671   1.083       .  S
C664        H672   1.083       .  S
C673        C674   1.407       .  A
C673        C678   1.407       .  A
C674        C675   1.400       .  A
C674        H687   1.083       .  S
C675        C676   1.401       .  A
C675        H688   1.083       .  S
C676        C677   1.406       .  A
C676        C679   1.456       .  S
C677        C678   1.409       .  A
C677        H689   1.083       .  S
C678        H690   1.083       .  S
C679        C680   1.216       .  T
C680        C681   1.456       .  S
C681        C682   1.401       .  A
C681        C686   1.404       .  A
C682        C683   1.403       .  A
C682        H691   1.083       .  S
C683        C684   1.411       .  A
C683        H692   1.083       .  S
C684        C685   1.411       .  A
C685        C686   1.406       .  A
C685        H693   1.083       .  S
C686        H694   1.083       .  S
C695        C696   1.409       .  A
C695        C700   1.407       .  A
C696        C697   1.400       .  A
C696        H709   1.083       .  S
C697        C698   1.400       .  A
C697        H710   1.083       .  S
C698        C699   1.404       .  A
C698        C701   1.449       .  S
C699        C700   1.404       .  A
C699        H711   1.083       .  S
C700        H712   1.083       .  S
C701        C702   1.212       .  T
C702        C703   1.450       .  S
C703        C704   1.402       .  A
C703        C708   1.403       .  A
C704        C705   1.403       .  A
C704        H713   1.083       .  S
C705        C706   1.406       .  A
C705        H714   1.083       .  S
C706        C707   1.406       .  A
C707        C708   1.404       .  A
C707        H715   1.083       .  S
C708        H716   1.083       .  S
C717        C718   1.410       .  A
C717        C722   1.412       .  A
C718        C719   1.409       .  A
C718        H731   1.083       .  S
C719        C720   1.406       .  A
C719        H732   1.083       .  S
C720        C721   1.400       .  A
C720        C723   1.458       .  S
C721        C722   1.402       .  A
C721        H733   1.083       .  S
C722        H734   1.083       .  S
C723        C724   1.217       .  T
C724        C725   1.458       .  S
C725        C726   1.405       .  A
C725        C730   1.402       .  A
C726        C727   1.407       .  A
C726        H735   1.083       .  S
C727        C728   1.406       .  A
C727        H736   1.083       .  S
C728        C729   1.407       .  A
C729        C730   1.404       .  A
C729        H737   1.083       .  S
C730        H738   1.083       .  S
C739        C740   1.411       .  A
C739        C744   1.411       .  A
C740        C741   1.401       .  A
C740        H753   1.083       .  S
C741        C742   1.400       .  A
C741        H754   1.083       .  S
C742        C743   1.403       .  A
C742        C745   1.453       .  S
C743        C744   1.406       .  A
C743        H755   1.083       .  S
C744        H756   1.083       .  S
C745        C746   1.214       .  T
C746        C747   1.454       .  S
C747        C748   1.402       .  A
C747        C752   1.404       .  A
C748        C749   1.403       .  A
C748        H757   1.083       .  S
C749        C750   1.406       .  A
C749        H758   1.083       .  S
C750        C751   1.407       .  A
C751        C752   1.406       .  A
C751        H759   1.083       .  S
C752        H760   1.083       .  S
C761        C762   1.405       .  A
C761        C766   1.406       .  A
C762        C763   1.400       .  A
C762        H775   1.083   1_556  S
C763        C764   1.401       .  A
C763        H776   1.083   1_556  S
C764        C765   1.405       .  A
C764        C767   1.452       .  S
C765        C766   1.406       .  A
C765        H777   1.083       .  S
C766        H778   1.083       .  S
C767        C768   1.213       .  T
C768        C769   1.452       .  S
C769        C770   1.402       .  A
C769        C774   1.401       .  A
C770        C771   1.404       .  A
C770        H779   1.083       .  S
C771        C772   1.411       .  A
C771        H780   1.083       .  S
C772        C773   1.409       .  A
C773        C774   1.403       .  A
C773        H781   1.083       .  S
C774        H782   1.083       .  S
C783        C784   1.408       .  A
C783        C788   1.409       .  A
C784        C785   1.400       .  A
C784        H797   1.083   1_556  S
C785        C786   1.400       .  A
C785        H798   1.083   1_556  S
C786        C787   1.407       .  A
C786        C789   1.457       .  S
C787        C788   1.411       .  A
C787        H799   1.083       .  S
C788        H800   1.083       .  S
C789        C790   1.217       .  T
C790        C791   1.458       .  S
C791        C792   1.403       .  A
C791        C796   1.403       .  A
C792        C793   1.406       .  A
C792        H801   1.083       .  S
C793        C794   1.412       .  A
C793        H802   1.083       .  S
C794        C795   1.410       .  A
C795        C796   1.405       .  A
C795        H803   1.083       .  S
C796        H804   1.083       .  S
C805        C806   1.408       .  A
C805        C810   1.410       .  A
C806        C807   1.400       .  A
C806        H819   1.083       .  S
C807        C808   1.400       .  A
C807        H820   1.084       .  S
C808        C809   1.398       .  A
C808        C811   1.438       .  S
C809        C810   1.397       .  A
C809        H821   1.084       .  S
C810        H822   1.082       .  S
C811        C812   1.204       .  T
C812        C813   1.433       .  S
C813        C814   1.395       .  A
C813        C818   1.399       .  A
C814        C815   1.391       .  A
C814        H823   1.084       .  S
C815        C816   1.411       .  A
C815        H824   1.080       .  S
C816        C817   1.412       .  A
C817        C818   1.400       .  A
C817        H825   1.082       .  S
C818        H826   1.083       .  S
C827        C828   1.406       .  A
C827        C832   1.404       .  A
C828        C829   1.391       .  A
C828        H841   1.084       .  S
C829        C830   1.396       .  A
C829        H842   1.084       .  S
C830        C831   1.403       .  A
C830        C833   1.435       .  S
C831        C832   1.402       .  A
C831        H843   1.083       .  S
C832        H844   1.083       .  S
C833        C834   1.203       .  T
C834        C835   1.435       .  S
C835        C836   1.398       .  A
C835        C840   1.400       .  A
C836        C837   1.396       .  A
C836        H845   1.083       .  S
C837        C838   1.406       .  A
C837        H846   1.083       .  S
C838        C839   1.405       .  A
C839        C840   1.397       .  A
C839        H847   1.083       .  S
C840        H848   1.084       .  S
C849        C850   1.407       .  A
C849        C854   1.411       .  A
C850        C851   1.398       .  A
C850        H863   1.083       .  S
C851        C852   1.399       .  A
C851        H864   1.083       .  S
C852        C853   1.399       .  A
C852        C855   1.440       .  S
C853        C854   1.399       .  A
C853        H865   1.084       .  S
C854        H866   1.083       .  S
C855        C856   1.206       .  T
C856        C857   1.439       .  S
C857        C858   1.400       .  A
C857        C862   1.400       .  A
C858        C859   1.399       .  A
C858        H867   1.083       .  S
C859        C860   1.406       .  A
C859        H868   1.083       .  S
C860        C861   1.406       .  A
C861        C862   1.397       .  A
C861        H869   1.083       .  S
C862        H870   1.084       .  S
C871        C872   1.408       .  A
C871        C876   1.407       .  A
C872        C873   1.402       .  A
C872        H885   1.083       .  S
C873        C874   1.401       .  A
C873        H886   1.083       .  S
C874        C875   1.395       .  A
C874        C877   1.433       .  S
C875        C876   1.389       .  A
C875        H887   1.084       .  S
C876        H888   1.083       .  S
C877        C878   1.202       .  T
C878        C879   1.433       .  S
C879        C880   1.400       .  A
C879        C884   1.397       .  A
C880        C881   1.395       .  A
C880        H889   1.084       .  S
C881        C882   1.405       .  A
C881        H890   1.083       .  S
C882        C883   1.408       .  A
C883        C884   1.397       .  A
C883        H891   1.083       .  S
C884        H892   1.083       .  S
C893        C894   1.411       .  A
C893        C898   1.412       .  A
C894        C895   1.408       .  A
C894        H907   1.083       .  S
C895        C896   1.404       .  A
C895        H908   1.083       .  S
C896        C897   1.401       .  A
C896        C899   1.456       .  S
C897        C898   1.403       .  A
C897        H909   1.083       .  S
C898        H910   1.083       .  S
C899        C900   1.216       .  T
C900        C901   1.456       .  S
C901        C902   1.401       .  A
C901        C906   1.405       .  A
C902        C903   1.402       .  A
C902        H911   1.083       .  S
C903        C904   1.407       .  A
C903        H912   1.083       .  S
C904        C905   1.406       .  A
C905        C906   1.407       .  A
C905        H913   1.083       .  S
C906        H914   1.083       .  S
C915        C916   1.407       .  A
C915        C920   1.407       .  A
C916        C917   1.401       .  A
C916        H929   1.083       .  S
C917        C918   1.401       .  A
C917        H930   1.083       .  S
C918        C919   1.405       .  A
C918        C921   1.454       .  S
C919        C920   1.407       .  A
C919        H931   1.083       .  S
C920        H932   1.083       .  S
C921        C922   1.215       .  T
C922        C923   1.455       .  S
C923        C924   1.399       .  A
C923        C928   1.405       .  A
C924        C925   1.401       .  A
C924        H933   1.084       .  S
C925        C926   1.413       .  A
C925        H934   1.083       .  S
C926        C927   1.409       .  A
C927        C928   1.408       .  A
C927        H935   1.083       .  S
C928        H936   1.083       .  S
C937        C938   1.405       .  A
C937        C942   1.408       .  A
C938        C939   1.405       .  A
C938        H951   1.083       .  S
C939        C940   1.403       .  A
C939        H952   1.083       .  S
C940        C941   1.402       .  A
C940        C943   1.453       .  S
C941        C942   1.403       .  A
C941        H953   1.083       .  S
C942        H954   1.083       .  S
C943        C944   1.214       .  T
C944        C945   1.454       .  S
C945        C946   1.404       .  A
C945        C950   1.400       .  A
C946        C947   1.406       .  A
C946        H955   1.083       .  S
C947        C948   1.408       .  A
C947        H956   1.083       .  S
C948        C949   1.412       .  A
C949        C950   1.402       .  A
C949        H957   1.083       .  S
C950        H958   1.084       .  S
C959        C960   1.406       .  A
C959        C964   1.407       .  A
C960        C961   1.407       .  A
C960        H973   1.083       .  S
C961        C962   1.405       .  A
C961        H974   1.083       .  S
C962        C963   1.401       .  A
C962        C965   1.454       .  S
C963        C964   1.401       .  A
C963        H975   1.083       .  S
C964        H976   1.083       .  S
C965        C966   1.215       .  T
C966        C967   1.455       .  S
C967        C968   1.405       .  A
C967        C972   1.399       .  A
C968        C969   1.408       .  A
C968        H977   1.083       .  S
C969        C970   1.410       .  A
C969        H978   1.083       .  S
C970        C971   1.412       .  A
C971        C972   1.401       .  A
C971        H979   1.083       .  S
C972        H980   1.083       .  S
C981        C982   1.407       .  A
C981        C986   1.405       .  A
C982        C983   1.406       .  A
C982        H995   1.083       .  S
C983        C984   1.404       .  A
C983        H996   1.083       .  S
C984        C985   1.404       .  A
C984        C987   1.459       .  S
C985        C986   1.405       .  A
C985        H997   1.083       .  S
C986        H998   1.083       .  S
C987        C988   1.218       .  T
C988        C989   1.460       .  S
C989        C990   1.404       .  A
C989        C994   1.402       .  A
C990        C991   1.408       .  A
C990        H999   1.083       .  S
C991        C992   1.410       .  A
C991       H1000   1.083       .  S
C992        C993   1.413       .  A
C993        C994   1.406       .  A
C993       H1001   1.083       .  S
C994       H1002   1.084       .  S
C1003      C1004   1.405       .  A
C1003      C1008   1.405       .  A
C1004      C1005   1.399       .  A
C1004      H1017   1.083       .  S
C1005      C1006   1.400       .  A
C1005      H1018   1.084       .  S
C1006      C1007   1.402       .  A
C1006      C1009   1.445       .  S
C1007      C1008   1.403       .  A
C1007      H1019   1.083   1_556  S
C1008      H1020   1.083   1_556  S
C1009      C1010   1.210       .  T
C1010      C1011   1.446       .  S
C1011      C1012   1.401       .  A
C1011      C1016   1.400       .  A
C1012      C1013   1.402       .  A
C1012      H1021   1.084       .  S
C1013      C1014   1.409       .  A
C1013      H1022   1.083       .  S
C1014      C1015   1.410       .  A
C1015      C1016   1.401       .  A
C1015      H1023   1.083       .  S
C1016      H1024   1.083       .  S
C1025      C1026   1.408       .  A
C1025      C1030   1.410       .  A
C1026      C1027   1.406       .  A
C1026      H1039   1.083       .  S
C1027      C1028   1.405       .  A
C1027      H1040   1.083       .  S
C1028      C1029   1.399       .  A
C1028      C1031   1.453       .  S
C1029      C1030   1.400       .  A
C1029      H1041   1.083       .  S
C1030      H1042   1.083       .  S
C1031      C1032   1.214       .  T
C1032      C1033   1.454       .  S
C1033      C1034   1.403       .  A
C1033      C1038   1.403       .  A
C1034      C1035   1.405       .  A
C1034      H1043   1.083       .  S
C1035      C1036   1.406       .  A
C1035      H1044   1.083       .  S
C1036      C1037   1.407       .  A
C1037      C1038   1.404       .  A
C1037      H1045   1.083       .  S
C1038      H1046   1.083       .  S
C1047      C1048   1.410       .  A
C1047      C1052   1.412       .  A
C1048      C1049   1.407       .  A
C1048      H1061   1.083       .  S
C1049      C1050   1.404       .  A
C1049      H1062   1.083       .  S
C1050      C1051   1.399       .  A
C1050      C1053   1.453       .  S
C1051      C1052   1.401       .  A
C1051      H1063   1.083       .  S
C1052      H1064   1.083       .  S
C1053      C1054   1.214       .  T
C1054      C1055   1.452       .  S
C1055      C1056   1.400       .  A
C1055      C1060   1.405       .  A
C1056      C1057   1.399       .  A
C1056      H1065   1.083       .  S
C1057      C1058   1.407       .  A
C1057      H1066   1.083       .  S
C1058      C1059   1.406       .  A
C1059      C1060   1.407       .  A
C1059      H1067   1.083   1_556  S
C1060      H1068   1.083   1_556  S
C1069      C1070   1.407       .  A
C1069      C1074   1.411       .  A
C1070      C1071   1.394       .  A
C1070      H1083   1.083       .  S
C1071      C1072   1.398       .  A
C1071      H1084   1.084       .  S
C1072      C1073   1.399       .  A
C1072      C1075   1.435       .  S
C1073      C1074   1.400       .  A
C1073      H1085   1.083       .  S
C1074      H1086   1.083       .  S
C1075      C1076   1.203       .  T
C1076      C1077   1.434       .  S
C1077      C1078   1.398       .  A
C1077      C1082   1.398       .  A
C1078      C1079   1.399       .  A
C1078      H1087   1.083       .  S
C1079      C1080   1.410       .  A
C1079      H1088   1.082       .  S
C1080      C1081   1.409       .  A
C1081      C1082   1.394       .  A
C1081      H1089   1.082       .  S
C1082      H1090   1.084       .  S
C1091      C1092   1.408       .  A
C1091      C1096   1.409       .  A
C1092      C1093   1.398       .  A
C1092      H1105   1.083       .  S
C1093      C1094   1.398       .  A
C1093      H1106   1.083       .  S
C1094      C1095   1.397       .  A
C1094      C1097   1.433       .  S
C1095      C1096   1.394       .  A
C1095      H1107   1.084       .  S
C1096      H1108   1.083       .  S
C1097      C1098   1.201       .  T
C1098      C1099   1.431       .  S
C1099      C1100   1.397       .  A
C1099      C1104   1.398       .  A
C1100      C1101   1.392       .  A
C1100      H1109   1.084       .  S
C1101      C1102   1.407       .  A
C1101      H1110   1.082       .  S
C1102      C1103   1.411       .  A
C1103      C1104   1.398       .  A
C1103      H1111   1.083       .  S
C1104      H1112   1.083       .  S
C1113      C1114   1.409       .  A
C1113      C1118   1.410       .  A
C1114      C1115   1.399       .  A
C1114      H1127   1.083       .  S
C1115      C1116   1.400       .  A
C1115      H1128   1.084       .  S
C1116      C1117   1.399       .  A
C1116      C1119   1.442       .  S
C1117      C1118   1.400       .  A
C1117      H1129   1.083       .  S
C1118      H1130   1.083       .  S
C1119      C1120   1.207       .  T
C1120      C1121   1.441       .  S
C1121      C1122   1.398       .  A
C1121      C1126   1.402       .  A
C1122      C1123   1.395       .  A
C1122      H1131   1.084       .  S
C1123      C1124   1.408       .  A
C1123      H1132   1.083       .  S
C1124      C1125   1.406       .  A
C1125      C1126   1.401       .  A
C1125      H1133   1.083       .  S
C1126      H1134   1.083       .  S
C1135      C1136   1.409       .  A
C1135      C1140   1.408       .  A
C1136      C1137   1.394       .  A
C1136      H1149   1.083       .  S
C1137      C1138   1.397       .  A
C1137      H1150   1.084       .  S
C1138      C1139   1.400       .  A
C1138      C1141   1.436       .  S
C1139      C1140   1.399       .  A
C1139      H1151   1.083       .  S
C1140      H1152   1.083       .  S
C1141      C1142   1.204       .  T
C1142      C1143   1.436       .  S
C1143      C1144   1.400       .  A
C1143      C1148   1.400       .  A
C1144      C1145   1.397       .  A
C1144      H1153   1.084       .  S
C1145      C1146   1.404       .  A
C1145      H1154   1.083       .  S
C1146      C1147   1.403       .  A
C1147      C1148   1.398       .  A
C1147      H1155   1.083       .  S
C1148      H1156   1.083       .  S
C1157      C1158   1.405       .  A
C1157      C1162   1.406   1_565  A
C1158      C1159   1.405       .  A
C1158      H1171   1.083       .  S
C1159      C1160   1.404       .  A
C1159      H1172   1.083       .  S
C1160      C1161   1.400   1_565  A
C1160      C1163   1.448       .  S
C1161      C1162   1.398       .  A
C1161      H1173   1.084       .  S
C1162      H1174   1.083       .  S
C1163      C1164   1.211       .  T
C1164      C1165   1.448       .  S
C1165      C1166   1.401       .  A
C1165      C1170   1.400       .  A
C1166      C1167   1.402       .  A
C1166      H1175   1.083       .  S
C1167      C1168   1.408       .  A
C1167      H1176   1.083       .  S
C1168      C1169   1.411       .  A
C1169      C1170   1.401       .  A
C1169      H1177   1.083       .  S
C1170      H1178   1.084       .  S
C1179      C1180   1.408       .  A
C1179      C1184   1.410   1_545  A
C1180      C1181   1.410       .  A
C1180      H1193   1.083       .  S
C1181      C1182   1.405       .  A
C1181      H1194   1.083       .  S
C1182      C1183   1.402   1_545  A
C1182      C1185   1.459       .  S
C1183      C1184   1.404       .  A
C1183      H1195   1.084       .  S
C1184      H1196   1.083       .  S
C1185      C1186   1.217       .  T
C1186      C1187   1.458       .  S
C1187      C1188   1.399   1_545  A
C1187      C1192   1.407       .  A
C1188      C1189   1.400       .  A
C1188      H1197   1.084       .  S
C1189      C1190   1.410       .  A
C1189      H1198   1.083       .  S
C1190      C1191   1.410   1_565  A
C1191      C1192   1.411       .  A
C1191      H1199   1.083       .  S
C1192      H1200   1.083       .  S
C1201      C1202   1.406   1_545  A
C1201      C1206   1.407       .  A
C1202      C1203   1.405       .  A
C1202      H1215   1.083       .  S
C1203      C1204   1.403   1_565  A
C1203      H1216   1.083       .  S
C1204      C1205   1.402       .  A
C1204      C1207   1.454       .  S
C1205      C1206   1.403       .  A
C1205      H1217   1.083       .  S
C1206      H1218   1.083       .  S
C1207      C1208   1.215       .  T
C1208      C1209   1.455       .  S
C1209      C1210   1.400       .  A
C1209      C1214   1.405   1_545  A
C1210      C1211   1.402       .  A
C1210      H1219   1.083       .  S
C1211      C1212   1.411   1_545  A
C1211      H1220   1.083       .  S
C1212      C1213   1.409       .  A
C1213      C1214   1.407       .  A
C1213      H1221   1.083       .  S
C1214      H1222   1.083       .  S
C1223      C1224   1.413       .  A
C1223      C1228   1.410       .  A
C1224      C1225   1.405       .  A
C1224      H1237   1.083       .  S
C1225      C1226   1.401       .  A
C1225      H1238   1.083       .  S
C1226      C1227   1.404       .  A
C1226      C1229   1.458       .  S
C1227      C1228   1.407       .  A
C1227      H1239   1.083       .  S
C1228      H1240   1.083       .  S
C1229      C1230   1.217       .  T
C1230      C1231   1.457       .  S
C1231      C1232   1.399       .  A
C1231      C1236   1.408       .  A
C1232      C1233   1.399       .  A
C1232      H1241   1.083       .  S
C1233      C1234   1.407       .  A
C1233      H1242   1.083       .  S
C1234      C1235   1.408       .  A
C1235      C1236   1.411       .  A
C1235      H1243   1.083       .  S
C1236      H1244   1.083       .  S
C1245      C1246   1.411       .  A
C1245      C1250   1.409       .  A
C1246      C1247   1.400       .  A
C1246      H1259   1.083       .  S
C1247      C1248   1.399       .  A
C1247      H1260   1.083       .  S
C1248      C1249   1.405       .  A
C1248      C1251   1.453       .  S
C1249      C1250   1.406       .  A
C1249      H1261   1.083       .  S
C1250      H1262   1.083       .  S
C1251      C1252   1.214       .  T
C1252      C1253   1.453       .  S
C1253      C1254   1.407       .  A
C1253      C1258   1.397       .  A
C1254      C1255   1.411       .  A
C1254      H1263   1.083       .  S
C1255      C1256   1.410       .  A
C1255      H1264   1.083       .  S
C1256      C1257   1.410       .  A
C1257      C1258   1.398       .  A
C1257      H1265   1.083       .  S
C1258      H1266   1.084       .  S
C1267      C1268   1.407       .  A
C1267      C1272   1.406       .  A
C1268      C1269   1.408       .  A
C1268      H1281   1.083       .  S
C1269      C1270   1.406       .  A
C1269      H1282   1.083       .  S
C1270      C1271   1.402       .  A
C1270      C1273   1.457       .  S
C1271      C1272   1.402       .  A
C1271      H1283   1.083       .  S
C1272      H1284   1.083       .  S
C1273      C1274   1.216       .  T
C1274      C1275   1.457       .  S
C1275      C1276   1.405       .  A
C1275      C1280   1.400       .  A
C1276      C1277   1.408       .  A
C1276      H1285   1.083       .  S
C1277      C1278   1.410       .  A
C1277      H1286   1.083       .  S
C1278      C1279   1.413       .  A
C1279      C1280   1.402       .  A
C1279      H1287   1.083       .  S
C1280      H1288   1.084       .  S
C1289      C1290   1.410       .  A
C1289      C1294   1.410       .  A
C1290      C1291   1.403       .  A
C1290      H1303   1.083       .  S
C1291      C1292   1.402       .  A
C1291      H1304   1.083       .  S
C1292      C1293   1.401       .  A
C1292      C1295   1.452       .  S
C1293      C1294   1.402       .  A
C1293      H1305   1.083       .  S
C1294      H1306   1.083       .  S
C1295      C1296   1.213       .  T
C1296      C1297   1.452       .  S
C1297      C1298   1.404       .  A
C1297      C1302   1.401       .  A
C1298      C1299   1.406       .  A
C1298      H1307   1.083       .  S
C1299      C1300   1.405       .  A
C1299      H1308   1.083       .  S
C1300      C1301   1.408       .  A
C1301      C1302   1.401       .  A
C1301      H1309   1.083       .  S
C1302      H1310   1.084       .  S
C1311      C1312   1.407       .  A
C1311      C1316   1.406   1_565  A
C1312      C1313   1.393       .  A
C1312      H1325   1.083       .  S
C1313      C1314   1.397       .  A
C1313      H1326   1.084       .  S
C1314      C1315   1.399   1_565  A
C1314      C1317   1.430       .  S
C1315      C1316   1.397       .  A
C1315      H1327   1.084       .  S
C1316      H1328   1.083       .  S
C1317      C1318   1.200   1_565  T
C1318      C1319   1.430       .  S
C1319      C1320   1.397       .  A
C1319      C1324   1.397   1_545  A
C1320      C1321   1.395       .  A
C1320      H1329   1.084       .  S
C1321      C1322   1.407   1_545  A
C1321      H1330   1.083       .  S
C1322      C1323   1.408       .  A
C1323      C1324   1.395       .  A
C1323      H1331   1.083       .  S
C1324      H1332   1.084       .  S
C1333      C1334   1.413       .  A
C1333      C1338   1.407       .  A
C1334      C1335   1.398       .  A
C1334      H1347   1.083       .  S
C1335      C1336   1.398       .  A
C1335      H1348   1.084       .  S
C1336      C1337   1.399       .  A
C1336      C1339   1.436       .  S
C1337      C1338   1.397       .  A
C1337      H1349   1.084       .  S
C1338      H1350   1.083       .  S
C1339      C1340   1.203       .  T
C1340      C1341   1.432       .  S
C1341      C1342   1.397       .  A
C1341      C1346   1.397       .  A
C1342      C1343   1.393       .  A
C1342      H1351   1.084       .  S
C1343      C1344   1.412       .  A
C1343      H1352   1.080       .  S
C1344      C1345   1.411       .  A
C1345      C1346   1.397       .  A
C1345      H1353   1.082       .  S
C1346      H1354   1.083       .  S
C1355      C1356   1.407       .  A
C1355      C1360   1.407       .  A
C1356      C1357   1.389       .  A
C1356      H1369   1.083   1_565  S
C1357      C1358   1.395       .  A
C1357      H1370   1.084   1_565  S
C1358      C1359   1.401       .  A
C1358      C1361   1.433       .  S
C1359      C1360   1.401       .  A
C1359      H1371   1.083       .  S
C1360      H1372   1.083       .  S
C1361      C1362   1.202       .  T
C1362      C1363   1.435       .  S
C1363      C1364   1.397       .  A
C1363      C1368   1.402   1_565  A
C1364      C1365   1.396       .  A
C1364      H1373   1.083       .  S
C1365      C1366   1.406       .  A
C1365      H1374   1.083       .  S
C1366      C1367   1.402   1_565  A
C1367      C1368   1.398       .  A
C1367      H1375   1.083       .  S
C1368      H1376   1.084       .  S
C1377      C1378   1.409       .  A
C1377      C1382   1.408       .  A
C1378      C1379   1.403       .  A
C1378      H1391   1.083       .  S
C1379      C1380   1.401       .  A
C1379      H1392   1.083       .  S
C1380      C1381   1.408       .  A
C1380      C1383   1.462       .  S
C1381      C1382   1.412       .  A
C1381      H1393   1.083   1_565  S
C1382      H1394   1.083   1_565  S
C1383      C1384   1.220       .  T
C1384      C1385   1.463       .  S
C1385      C1386   1.404       .  A
C1385      C1390   1.403       .  A
C1386      C1387   1.409       .  A
C1386      H1395   1.083       .  S
C1387      C1388   1.412       .  A
C1387      H1396   1.083   1_565  S
C1388      C1389   1.410       .  A
C1389      C1390   1.406       .  A
C1389      H1397   1.083       .  S
C1390      H1398   1.083       .  S
C1399      C1400   1.408       .  A
C1399      C1404   1.405       .  A
C1400      C1401   1.397       .  A
C1400      H1413   1.083       .  S
C1401      C1402   1.398       .  A
C1401      H1414   1.083       .  S
C1402      C1403   1.399       .  A
C1402      C1405   1.432       .  S
C1403      C1404   1.394       .  A
C1403      H1415   1.084       .  S
C1404      H1416   1.083       .  S
C1405      C1406   1.201       .  T
C1406      C1407   1.432       .  S
C1407      C1408   1.394       .  A
C1407      C1412   1.401       .  A
C1408      C1409   1.389       .  A
C1408      H1417   1.084       .  S
C1409      C1410   1.409       .  A
C1409      H1418   1.083       .  S
C1410      C1411   1.408       .  A
C1411      C1412   1.401       .  A
C1411      H1419   1.083       .  S
C1412      H1420   1.083       .  S
C1421      C1422   1.408       .  A
C1421      C1426   1.411       .  A
C1422      C1423   1.410       .  A
C1422      H1435   1.083       .  S
C1423      C1424   1.407       .  A
C1423      H1436   1.083       .  S
C1424      C1425   1.398       .  A
C1424      C1427   1.455       .  S
C1425      C1426   1.399       .  A
C1425      H1437   1.084       .  S
C1426      H1438   1.083       .  S
C1427      C1428   1.215       .  T
C1428      C1429   1.455       .  S
C1429      C1430   1.404       .  A
C1429      C1434   1.400       .  A
C1430      C1431   1.406       .  A
C1430      H1439   1.083       .  S
C1431      C1432   1.411       .  A
C1431      H1440   1.083       .  S
C1432      C1433   1.410       .  A
C1433      C1434   1.402       .  A
C1433      H1441   1.083       .  S
C1434      H1442   1.083       .  S
C1443      C1444   1.414       .  A
C1443      C1448   1.409       .  A
C1444      C1445   1.404       .  A
C1444      H1457   1.083       .  S
C1445      C1446   1.401       .  A
C1445      H1458   1.084       .  S
C1446      C1447   1.405       .  A
C1446      C1449   1.458       .  S
C1447      C1448   1.408       .  A
C1447      H1459   1.083       .  S
C1448      H1460   1.083       .  S
C1449      C1450   1.217       .  T
C1450      C1451   1.457       .  S
C1451      C1452   1.403       .  A
C1451      C1456   1.404       .  A
C1452      C1453   1.404       .  A
C1452      H1461   1.083       .  S
C1453      C1454   1.408       .  A
C1453      H1462   1.083       .  S
C1454      C1455   1.407       .  A
C1455      C1456   1.406       .  A
C1455      H1463   1.083       .  S
C1456      H1464   1.083       .  S
C1465      C1466   1.411       .  A
C1465      C1470   1.408       .  A
C1466      C1467   1.399       .  A
C1466      H1479   1.083       .  S
C1467      C1468   1.398       .  A
C1467      H1480   1.084       .  S
C1468      C1469   1.406       .  A
C1468      C1471   1.453       .  S
C1469      C1470   1.408       .  A
C1469      H1481   1.083       .  S
C1470      H1482   1.083       .  S
C1471      C1472   1.214       .  T
C1472      C1473   1.453       .  S
C1473      C1474   1.402       .  A
C1473      C1478   1.404       .  A
C1474      C1475   1.403       .  A
C1474      H1483   1.083       .  S
C1475      C1476   1.406       .  A
C1475      H1484   1.083       .  S
C1476      C1477   1.406       .  A
C1477      C1478   1.405       .  A
C1477      H1485   1.083       .  S
C1478      H1486   1.083       .  S
C1487      C1488   1.405       .  A
C1487      C1492   1.405       .  A
C1488      C1489   1.404       .  A
C1488      H1501   1.083       .  S
C1489      C1490   1.403       .  A
C1489      H1502   1.083       .  S
C1490      C1491   1.401       .  A
C1490      C1493   1.448       .  S
C1491      C1492   1.401       .  A
C1491      H1503   1.084       .  S
C1492      H1504   1.083       .  S
C1493      C1494   1.211       .  T
C1494      C1495   1.447       .  S
C1495      C1496   1.401       .  A
C1495      C1500   1.400       .  A
C1496      C1497   1.401       .  A
C1496      H1505   1.083       .  S
C1497      C1498   1.409       .  A
C1497      H1506   1.083       .  S
C1498      C1499   1.410       .  A
C1499      C1500   1.401       .  A
C1499      H1507   1.083       .  S
C1500      H1508   1.083       .  S
C1509      C1510   1.411       .  A
C1509      C1514   1.413   1_545  A
C1510      C1511   1.413       .  A
C1510      H1523   1.083       .  S
C1511      C1512   1.408       .  A
C1511      H1524   1.083       .  S
C1512      C1513   1.401   1_545  A
C1512      C1515   1.466       .  S
C1513      C1514   1.404       .  A
C1513      H1525   1.083       .  S
C1514      H1526   1.083       .  S
C1515      C1516   1.222       .  T
C1516      C1517   1.466       .  S
C1517      C1518   1.405       .  A
C1517      C1522   1.406       .  A
C1518      C1519   1.408   1_545  A
C1518      H1527   1.083   1_545  S
C1519      C1520   1.409   1_565  A
C1519      H1528   1.083       .  S
C1520      C1521   1.408       .  A
C1521      C1522   1.410       .  A
C1521      H1529   1.083       .  S
C1522      H1530   1.083       .  S
C1531      C1532   1.413       .  A
C1531      C1536   1.411       .  A
C1532      C1533   1.408       .  A
C1532      H1545   1.083   1_565  S
C1533      C1534   1.403       .  A
C1533      H1546   1.083   1_565  S
C1534      C1535   1.405       .  A
C1534      C1537   1.463       .  S
C1535      C1536   1.409       .  A
C1535      H1547   1.083       .  S
C1536      H1548   1.083       .  S
C1537      C1538   1.220       .  T
C1538      C1539   1.463       .  S
C1539      C1540   1.401       .  A
C1539      C1544   1.407   1_565  A
C1540      C1541   1.403       .  A
C1540      H1549   1.083       .  S
C1541      C1542   1.410       .  A
C1541      H1550   1.083       .  S
C1542      C1543   1.408   1_565  A
C1543      C1544   1.411       .  A
C1543      H1551   1.083       .  S
C1544      H1552   1.083       .  S
C1553      C1554   1.405   1_565  A
C1553      C1558   1.406       .  A
C1554      C1555   1.405       .  A
C1554      H1567   1.083       .  S
C1555      C1556   1.404   1_545  A
C1555      H1568   1.083       .  S
C1556      C1557   1.401       .  A
C1556      C1559   1.449       .  S
C1557      C1558   1.399       .  A
C1557      H1569   1.083       .  S
C1558      H1570   1.083       .  S
C1559      C1560   1.211       .  T
C1560      C1561   1.449       .  S
C1561      C1562   1.402       .  A
C1561      C1566   1.400       .  A
C1562      C1563   1.403       .  A
C1562      H1571   1.083       .  S
C1563      C1564   1.408       .  A
C1563      H1572   1.083       .  S
C1564      C1565   1.412       .  A
C1565      C1566   1.402       .  A
C1565      H1573   1.083       .  S
C1566      H1574   1.084       .  S
C1575      C1576   1.407       .  A
C1575      C1580   1.406   1_565  A
C1576      C1577   1.406       .  A
C1576      H1589   1.083       .  S
C1577      C1578   1.404       .  A
C1577      H1590   1.083       .  S
C1578      C1579   1.403   1_565  A
C1578      C1581   1.456       .  S
C1579      C1580   1.404       .  A
C1579      H1591   1.083       .  S
C1580      H1592   1.083       .  S
C1581      C1582   1.216       .  T
C1582      C1583   1.456       .  S
C1583      C1584   1.405       .  A
C1583      C1588   1.400       .  A
C1584      C1585   1.407       .  A
C1584      H1593   1.083       .  S
C1585      C1586   1.409       .  A
C1585      H1594   1.083       .  S
C1586      C1587   1.413       .  A
C1587      C1588   1.403       .  A
C1587      H1595   1.083       .  S
C1588      H1596   1.083       .  S
C1597      C1598   1.408       .  A
C1597      C1602   1.408       .  A
C1598      C1599   1.392       .  A
C1598      H1611   1.083       .  S
C1599      C1600   1.396       .  A
C1599      H1612   1.084       .  S
C1600      C1601   1.401       .  A
C1600      C1603   1.434       .  S
C1601      C1602   1.401       .  A
C1601      H1613   1.083       .  S
C1602      H1614   1.083       .  S
C1603      C1604   1.202       .  T
C1604      C1605   1.434       .  S
C1605      C1606   1.398       .  A
C1605      C1610   1.400       .  A
C1606      C1607   1.395       .  A
C1606      H1615   1.084       .  S
C1607      C1608   1.406       .  A
C1607      H1616   1.083       .  S
C1608      C1609   1.405       .  A
C1609      C1610   1.397       .  A
C1609      H1617   1.083       .  S
C1610      H1618   1.083       .  S
C1619      C1620   1.407       .  A
C1619      C1624   1.404       .  A
C1620      C1621   1.400       .  A
C1620      H1633   1.083       .  S
C1621      C1622   1.400       .  A
C1621      H1634   1.083       .  S
C1622      C1623   1.399       .  A
C1622      C1625   1.434       .  S
C1623      C1624   1.393       .  A
C1623      H1635   1.084       .  S
C1624      H1636   1.083       .  S
C1625      C1626   1.202       .  T
C1626      C1627   1.432       .  S
C1627      C1628   1.401       .  A
C1627      C1632   1.393       .  A
C1628      C1629   1.401       .  A
C1628      H1637   1.083       .  S
C1629      C1630   1.410       .  A
C1629      H1638   1.082       .  S
C1630      C1631   1.411       .  A
C1631      C1632   1.388       .  A
C1631      H1639   1.081       .  S
C1632      H1640   1.084       .  S
C1641      C1642   1.406       .  A
C1641      C1646   1.408       .  A
C1642      C1643   1.399       .  A
C1642      H1655   1.083       .  S
C1643      C1644   1.401       .  A
C1643      H1656   1.084       .  S
C1644      C1645   1.396       .  A
C1644      C1647   1.434       .  S
C1645      C1646   1.394       .  A
C1645      H1657   1.084       .  S
C1646      H1658   1.083       .  S
C1647      C1648   1.202       .  T
C1648      C1649   1.432       .  S
C1649      C1650   1.396       .  A
C1649      C1654   1.398       .  A
C1650      C1651   1.392       .  A
C1650      H1659   1.084       .  S
C1651      C1652   1.409       .  A
C1651      H1660   1.081       .  S
C1652      C1653   1.411       .  A
C1653      C1654   1.398       .  A
C1653      H1661   1.082       .  S
C1654      H1662   1.084       .  S
C1663      C1664   1.406       .  A
C1663      C1668   1.407       .  A
C1664      C1665   1.392       .  A
C1664      H1677   1.083       .  S
C1665      C1666   1.396       .  A
C1665      H1678   1.084       .  S
C1666      C1667   1.401       .  A
C1666      C1669   1.433       .  S
C1667      C1668   1.400       .  A
C1667      H1679   1.084       .  S
C1668      H1680   1.083       .  S
C1669      C1670   1.202       .  T
C1670      C1671   1.432       .  S
C1671      C1672   1.394       .  A
C1671      C1676   1.401       .  A
C1672      C1673   1.390       .  A
C1672      H1681   1.084       .  S
C1673      C1674   1.410       .  A
C1673      H1682   1.083       .  S
C1674      C1675   1.406       .  A
C1675      C1676   1.399       .  A
C1675      H1683   1.083       .  S
C1676      H1684   1.083       .  S
C1685      C1686   1.408       .  A
C1685      C1690   1.405       .  A
C1686      C1687   1.407       .  A
C1686      H1699   1.083       .  S
C1687      C1688   1.405       .  A
C1687      H1700   1.083       .  S
C1688      C1689   1.406       .  A
C1688      C1691   1.465       .  S
C1689      C1690   1.408       .  A
C1689      H1701   1.083       .  S
C1690      H1702   1.083       .  S
C1691      C1692   1.222       .  T
C1692      C1693   1.466       .  S
C1693      C1694   1.404       .  A
C1693      C1698   1.405       .  A
C1694      C1695   1.409       .  A
C1694      H1703   1.083       .  S
C1695      C1696   1.413       .  A
C1695      H1704   1.082       .  S
C1696      C1697   1.413       .  A
C1697      C1698   1.411       .  A
C1697      H1705   1.082       .  S
C1698      H1706   1.083       .  S
C1707      C1708   1.408       .  A
C1707      C1712   1.411       .  A
C1708      C1709   1.402       .  A
C1708      H1721   1.083       .  S
C1709      C1710   1.402       .  A
C1709      H1722   1.083       .  S
C1710      C1711   1.403       .  A
C1710      C1713   1.453       .  S
C1711      C1712   1.405       .  A
C1711      H1723   1.083       .  S
C1712      H1724   1.083       .  S
C1713      C1714   1.214       .  T
C1714      C1715   1.454       .  S
C1715      C1716   1.401       .  A
C1715      C1720   1.405       .  A
C1716      C1717   1.401       .  A
C1716      H1725   1.084       .  S
C1717      C1718   1.410       .  A
C1717      H1726   1.083       .  S
C1718      C1719   1.405       .  A
C1719      C1720   1.407       .  A
C1719      H1727   1.083       .  S
C1720      H1728   1.083       .  S
C1729      C1730   1.413       .  A
C1729      C1734   1.409       .  A
C1730      C1731   1.401       .  A
C1730      H1743   1.083       .  S
C1731      C1732   1.399       .  A
C1731      H1744   1.084       .  S
C1732      C1733   1.405       .  A
C1732      C1735   1.456       .  S
C1733      C1734   1.408       .  A
C1733      H1745   1.083       .  S
C1734      H1746   1.083       .  S
C1735      C1736   1.216       .  T
C1736      C1737   1.455       .  S
C1737      C1738   1.404       .  A
C1737      C1742   1.402       .  A
C1738      C1739   1.407       .  A
C1738      H1747   1.083       .  S
C1739      C1740   1.406       .  A
C1739      H1748   1.083       .  S
C1740      C1741   1.407       .  A
C1741      C1742   1.402       .  A
C1741      H1749   1.083   1_655  S
C1742      H1750   1.083   1_655  S
C1751      C1752   1.406       .  A
C1751      C1756   1.407   1_655  A
C1752      C1753   1.406       .  A
C1752      H1765   1.083       .  S
C1753      C1754   1.404       .  A
C1753      H1766   1.083       .  S
C1754      C1755   1.404       .  A
C1754      C1757   1.459       .  S
C1755      C1756   1.406   1_655  A
C1755      H1767   1.083   1_655  S
C1756      H1768   1.083       .  S
C1757      C1758   1.217       .  T
C1758      C1759   1.459       .  S
C1759      C1760   1.401       .  A
C1759      C1764   1.405       .  A
C1760      C1761   1.403       .  A
C1760      H1769   1.083       .  S
C1761      C1762   1.412       .  A
C1761      H1770   1.083       .  S
C1762      C1763   1.409       .  A
C1763      C1764   1.408       .  A
C1763      H1771   1.083       .  S
C1764      H1772   1.083       .  S
C1773      C1774   1.408       .  A
C1773      C1778   1.406       .  A
C1774      C1775   1.402       .  A
C1774      H1787   1.083   1_655  S
C1775      C1776   1.402       .  A
C1775      H1788   1.083       .  S
C1776      C1777   1.404       .  A
C1776      C1779   1.455       .  S
C1777      C1778   1.406       .  A
C1777      H1789   1.083       .  S
C1778      H1790   1.083       .  S
C1779      C1780   1.216       .  T
C1780      C1781   1.456       .  S
C1781      C1782   1.406       .  A
C1781      C1786   1.400       .  A
C1782      C1783   1.408       .  A
C1782      H1791   1.083       .  S
C1783      C1784   1.407       .  A
C1783      H1792   1.083       .  S
C1784      C1785   1.412       .  A
C1785      C1786   1.402       .  A
C1785      H1793   1.083       .  S
C1786      H1794   1.084       .  S
C1795      C1796   1.409       .  A
C1795      C1800   1.411       .  A
C1796      C1797   1.406       .  A
C1796      H1809   1.083       .  S
C1797      C1798   1.403       .  A
C1797      H1810   1.083       .  S
C1798      C1799   1.402       .  A
C1798      C1801   1.455       .  S
C1799      C1800   1.404       .  A
C1799      H1811   1.083       .  S
C1800      H1812   1.083       .  S
C1801      C1802   1.215       .  T
C1802      C1803   1.455       .  S
C1803      C1804   1.401       .  A
C1803      C1808   1.405       .  A
C1804      C1805   1.402       .  A
C1804      H1813   1.084       .  S
C1805      C1806   1.410       .  A
C1805      H1814   1.083       .  S
C1806      C1807   1.405       .  A
C1807      C1808   1.406       .  A
C1807      H1815   1.083       .  S
C1808      H1816   1.083       .  S
C1817      C1818   1.411       .  A
C1817      C1822   1.409       .  A
C1818      C1819   1.401       .  A
C1818      H1831   1.083       .  S
C1819      C1820   1.399       .  A
C1819      H1832   1.083       .  S
C1820      C1821   1.404       .  A
C1820      C1823   1.452       .  S
C1821      C1822   1.405       .  A
C1821      H1833   1.083       .  S
C1822      H1834   1.083       .  S
C1823      C1824   1.213       .  T
C1824      C1825   1.451       .  S
C1825      C1826   1.405       .  A
C1825      C1830   1.400       .  A
C1826      C1827   1.406       .  A
C1826      H1835   1.083       .  S
C1827      C1828   1.406       .  A
C1827      H1836   1.083       .  S
C1828      C1829   1.407       .  A
C1829      C1830   1.400       .  A
C1829      H1837   1.083       .  S
C1830      H1838   1.084       .  S
C1839      C1840   1.411       .  A
C1839      C1844   1.409       .  A
C1840      C1841   1.404       .  A
C1840      H1853   1.083       .  S
C1841      C1842   1.402       .  A
C1841      H1854   1.084       .  S
C1842      C1843   1.405       .  A
C1842      C1845   1.458       .  S
C1843      C1844   1.408       .  A
C1843      H1855   1.083       .  S
C1844      H1856   1.083       .  S
C1845      C1846   1.217       .  T
C1846      C1847   1.457       .  S
C1847      C1848   1.402       .  A
C1847      C1852   1.406       .  A
C1848      C1849   1.402       .  A
C1848      H1857   1.083       .  S
C1849      C1850   1.407       .  A
C1849      H1858   1.083       .  S
C1850      C1851   1.407       .  A
C1851      C1852   1.409       .  A
C1851      H1859   1.083       .  S
C1852      H1860   1.083       .  S
C1861      C1862   1.413       .  A
C1861      C1866   1.409       .  A
C1862      C1863   1.404       .  A
C1862      H1875   1.083       .  S
C1863      C1864   1.401       .  A
C1863      H1876   1.083       .  S
C1864      C1865   1.405       .  A
C1864      C1867   1.459       .  S
C1865      C1866   1.408       .  A
C1865      H1877   1.083       .  S
C1866      H1878   1.083       .  S
C1867      C1868   1.217       .  T
C1868      C1869   1.458       .  S
C1869      C1870   1.406       .  A
C1869      C1874   1.402       .  A
C1870      C1871   1.408       .  A
C1870      H1879   1.083       .  S
C1871      C1872   1.407       .  A
C1871      H1880   1.083       .  S
C1872      C1873   1.405       .  A
C1873      C1874   1.403       .  A
C1873      H1881   1.083       .  S
C1874      H1882   1.083       .  S
C1883      C1884   1.410       .  A
C1883      C1888   1.412       .  A
C1884      C1885   1.408       .  A
C1884      H1897   1.083       .  S
C1885      C1886   1.405       .  A
C1885      H1898   1.083       .  S
C1886      C1887   1.400       .  A
C1886      C1889   1.457       .  S
C1887      C1888   1.402       .  A
C1887      H1899   1.083       .  S
C1888      H1900   1.083       .  S
C1889      C1890   1.216       .  T
C1890      C1891   1.457       .  S
C1891      C1892   1.405       .  A
C1891      C1896   1.402       .  A
C1892      C1893   1.407       .  A
C1892      H1901   1.083       .  S
C1893      C1894   1.406       .  A
C1893      H1902   1.083       .  S
C1894      C1895   1.408       .  A
C1895      C1896   1.403       .  A
C1895      H1903   1.083       .  S
C1896      H1904   1.083       .  S
C1905      C1906   1.410       .  A
C1905      C1910   1.408       .  A
C1906      C1907   1.397       .  A
C1906      H1919   1.083       .  S
C1907      C1908   1.398       .  A
C1907      H1920   1.084       .  S
C1908      C1909   1.406       .  A
C1908      C1911   1.453       .  S
C1909      C1910   1.410       .  A
C1909      H1921   1.083       .  S
C1910      H1922   1.083       .  S
C1911      C1912   1.214       .  T
C1912      C1913   1.453       .  S
C1913      C1914   1.398       .  A
C1913      C1918   1.405       .  A
C1914      C1915   1.400       .  A
C1914      H1923   1.084       .  S
C1915      C1916   1.413       .  A
C1915      H1924   1.083       .  S
C1916      C1917   1.409       .  A
C1917      C1918   1.408       .  A
C1917      H1925   1.083       .  S
C1918      H1926   1.083       .  S
C1927      C1928   1.407       .  A
C1927      C1932   1.408       .  A
C1928      C1929   1.410       .  A
C1928      H1941   1.083       .  S
C1929      C1930   1.407       .  A
C1929      H1942   1.083       .  S
C1930      C1931   1.401       .  A
C1930      C1933   1.459       .  S
C1931      C1932   1.401       .  A
C1931      H1943   1.083       .  S
C1932      H1944   1.083       .  S
C1933      C1934   1.218       .  T
C1934      C1935   1.459       .  S
C1935      C1936   1.403       .  A
C1935      C1940   1.403       .  A
C1936      C1937   1.405       .  A
C1936      H1945   1.083       .  S
C1937      C1938   1.410       .  A
C1937      H1946   1.083       .  S
C1938      C1939   1.413       .  A
C1939      C1940   1.408       .  A
C1939      H1947   1.083       .  S
C1940      H1948   1.083       .  S
C1949      C1950   1.406       .  A
C1949      C1954   1.408       .  A
C1950      C1951   1.404       .  A
C1950      H1963   1.083       .  S
C1951      C1952   1.402       .  A
C1951      H1964   1.083       .  S
C1952      C1953   1.405       .  A
C1952      C1955   1.459       .  S
C1953      C1954   1.408       .  A
C1953      H1965   1.083       .  S
C1954      H1966   1.083       .  S
C1955      C1956   1.218       .  T
C1956      C1957   1.459       .  S
C1957      C1958   1.405       .  A
C1957      C1962   1.401       .  A
C1958      C1959   1.408       .  A
C1958      H1967   1.083       .  S
C1959      C1960   1.410       .  A
C1959      H1968   1.083       .  S
C1960      C1961   1.413       .  A
C1961      C1962   1.405       .  A
C1961      H1969   1.083       .  S
C1962      H1970   1.083       .  S
C1971      C1972   1.409       .  A
C1971      C1976   1.409       .  A
C1972      C1973   1.410       .  A
C1972      H1985   1.083       .  S
C1973      C1974   1.406       .  A
C1973      H1986   1.083       .  S
C1974      C1975   1.401       .  A
C1974      C1977   1.459       .  S
C1975      C1976   1.402       .  A
C1975      H1987   1.084       .  S
C1976      H1988   1.083       .  S
C1977      C1978   1.218       .  T
C1978      C1979   1.459       .  S
C1979      C1980   1.401       .  A
C1979      C1984   1.407       .  A
C1980      C1981   1.401       .  A
C1980      H1989   1.084       .  S
C1981      C1982   1.409       .  A
C1981      H1990   1.083       .  S
C1982      C1983   1.409       .  A
C1983      C1984   1.411       .  A
C1983      H1991   1.083       .  S
C1984      H1992   1.083       .  S
C1993      C1994   1.406       .  A
C1993      C1998   1.406       .  A
C1994      C1995   1.394       .  A
C1994      H2007   1.083       .  S
C1995      C1996   1.397       .  A
C1995      H2008   1.084       .  S
C1996      C1997   1.399   1_655  A
C1996      C1999   1.431   1_655  S
C1997      C1998   1.397   1_455  A
C1997      H2009   1.083       .  S
C1998      H2010   1.083   1_655  S
C1999      C2000   1.201       .  T
C2000      C2001   1.431       .  S
C2001      C2002   1.396       .  A
C2001      C2006   1.398       .  A
C2002      C2003   1.393       .  A
C2002      H2011   1.084       .  S
C2003      C2004   1.408       .  A
C2003      H2012   1.083       .  S
C2004      C2005   1.408       .  A
C2005      C2006   1.396       .  A
C2005      H2013   1.083       .  S
C2006      H2014   1.084       .  S
C2015      C2016   1.406       .  A
C2015      C2020   1.409       .  A
C2016      C2017   1.391       .  A
C2016      H2029   1.083       .  S
C2017      C2018   1.397       .  A
C2017      H2030   1.084       .  S
C2018      C2019   1.398       .  A
C2018      C2021   1.432       .  S
C2019      C2020   1.398       .  A
C2019      H2031   1.083       .  S
C2020      H2032   1.083       .  S
C2021      C2022   1.201       .  T
C2022      C2023   1.432       .  S
C2023      C2024   1.397       .  A
C2023      C2028   1.398       .  A
C2024      C2025   1.399       .  A
C2024      H2033   1.083       .  S
C2025      C2026   1.411       .  A
C2025      H2034   1.083       .  S
C2026      C2027   1.406       .  A
C2027      C2028   1.393       .  A
C2027      H2035   1.082       .  S
C2028      H2036   1.084       .  S
C2037      C2038   1.408       .  A
C2037      C2042   1.407       .  A
C2038      C2039   1.398       .  A
C2038      H2051   1.083       .  S
C2039      C2040   1.398       .  A
C2039      H2052   1.083       .  S
C2040      C2041   1.396       .  A
C2040      C2043   1.428       .  S
C2041      C2042   1.390       .  A
C2041      H2053   1.084       .  S
C2042      H2054   1.083       .  S
C2043      C2044   1.199       .  T
C2044      C2045   1.429       .  S
C2045      C2046   1.397       .  A
C2045      C2050   1.398       .  A
C2046      C2047   1.394       .  A
C2046      H2055   1.084       .  S
C2047      C2048   1.406       .  A
C2047      H2056   1.083       .  S
C2048      C2049   1.408       .  A
C2049      C2050   1.394       .  A
C2049      H2057   1.083       .  S
C2050      H2058   1.084       .  S
C2059      C2060   1.407       .  A
C2059      C2064   1.408       .  A
C2060      C2061   1.407       .  A
C2060      H2073   1.083       .  S
C2061      C2062   1.404       .  A
C2061      H2074   1.083       .  S
C2062      C2063   1.401       .  A
C2062      C2065   1.452       .  S
C2063      C2064   1.401       .  A
C2063      H2075   1.084       .  S
C2064      H2076   1.083       .  S
C2065      C2066   1.213       .  T
C2066      C2067   1.452       .  S
C2067      C2068   1.403       .  A
C2067      C2072   1.400       .  A
C2068      C2069   1.404       .  A
C2068      H2077   1.083       .  S
C2069      C2070   1.409       .  A
C2069      H2078   1.083       .  S
C2070      C2071   1.412       .  A
C2071      C2072   1.402       .  A
C2071      H2079   1.083       .  S
C2072      H2080   1.083       .  S
C2081      C2082   1.413       .  A
C2081      C2086   1.411       .  A
C2082      C2083   1.402       .  A
C2082      H2095   1.083       .  S
C2083      C2084   1.399       .  A
C2083      H2096   1.083       .  S
C2084      C2085   1.407       .  A
C2084      C2087   1.460       .  S
C2085      C2086   1.411       .  A
C2085      H2097   1.083       .  S
C2086      H2098   1.083       .  S
C2087      C2088   1.218       .  T
C2088      C2089   1.459       .  S
C2089      C2090   1.403       .  A
C2089      C2094   1.405       .  A
C2090      C2091   1.403       .  A
C2090      H2099   1.083   1_655  S
C2091      C2092   1.406       .  A
C2091      H2100   1.083   1_655  S
C2092      C2093   1.407       .  A
C2093      C2094   1.407       .  A
C2093      H2101   1.083       .  S
C2094      H2102   1.083       .  S
C2103      C2104   1.403       .  A
C2103      C2108   1.405   1_655  A
C2104      C2105   1.397       .  A
C2104      H2117   1.083       .  S
C2105      C2106   1.401       .  A
C2105      H2118   1.084       .  S
C2106      C2107   1.396   1_655  A
C2106      C2109   1.430       .  S
C2107      C2108   1.393       .  A
C2107      H2119   1.084       .  S
C2108      H2120   1.083       .  S
C2109      C2110   1.200       .  T
C2110      C2111   1.428   1_655  S
C2111      C2112   1.400       .  A
C2111      C2116   1.394       .  A
C2112      C2113   1.399       .  A
C2112      H2121   1.083       .  S
C2113      C2114   1.409       .  A
C2113      H2122   1.083       .  S
C2114      C2115   1.406       .  A
C2115      C2116   1.387       .  A
C2115      H2123   1.083       .  S
C2116      H2124   1.084       .  S
