geometry optimzed in LAMMPS
_audit_creation_date              2020-11-30 
_audit_creation_method            'lammps2cif' 
_symmetry_space_group_name_H-M    'P1' 
_symmetry_Int_Tables_number       1 
_symmetry_cell_setting            triclinic 
loop_ 
_symmetry_equiv_pos_as_xyz 
  x,y,z 
_cell_length_a                    46.34741172 
_cell_length_b                    46.249686904682825 
_cell_length_c                    46.16141773290735 
_cell_angle_alpha                 89.92034578957909 
_cell_angle_beta                  89.95067578821774 
_cell_angle_gamma                 90.24664740773333 
loop_ 
_atom_site_label 
_atom_site_type_symbol 
_atom_site_fract_x 
_atom_site_fract_y 
_atom_site_fract_z 
_atom_site_charge 
C1          C  0.00909863  0.27002691  0.20033650     0.80600
N2          N  0.01447079  0.29151319  0.21969681    -0.77700
C3          C  0.01331208  0.28644792  0.24846670     0.83000
N4          N  0.00670244  0.25961452  0.25805111    -0.77700
C5          C  0.00115353  0.23766575  0.23939605     0.83100
N6          N  0.00227349  0.24287272  0.21021344    -0.79400
O7          O  0.00784444  0.43845163  0.42767537    -0.79800
O8          O  0.02010254  0.43752602  0.59259491    -0.81300
O9          O  0.06371101  0.40676084  0.50654021    -0.78300
O10         O  0.96938430  0.39680715  0.51437473    -0.76700
O11         O  0.93093374  0.42764173  0.51679174    -0.78500
O12         O  0.09463259  0.44535298  0.50350304    -0.79400
O13         O  0.02364541  0.40299765  0.55724433    -0.80800
O14         O  0.01431552  0.40352259  0.46230344    -0.81100
Eu15       Eu  0.01397137  0.42601130  0.51014534     2.39200
O16         O  0.98365262  0.45173690  0.54186991    -0.88600
O17         O  0.03704991  0.45884226  0.47863168    -0.92200
C18         C  0.01195576  0.41208778  0.43585437     1.02500
C19         C  0.02490201  0.41158227  0.58383188     1.02300
C20         C  0.08932237  0.41791709  0.50461284     1.02300
C21         C  0.94207906  0.40209573  0.51634047     1.00100
H22         H  0.05641951  0.44777667  0.54824446     0.29900
O23         O  0.04213864  0.45832751  0.53736158    -1.01000
H24         H  0.96794646  0.43869782  0.47178252     0.29900
O25         O  0.97937224  0.45205815  0.48308220    -1.03500
O26         O  0.00775219  0.53063557  0.59405993    -0.80700
O27         O  0.99725941  0.53349453  0.42869747    -0.80300
O28         O  0.09333000  0.49263259  0.55200168    -0.78700
O29         O  0.92834913  0.47452103  0.56384383    -0.82000
O30         O  0.92147773  0.47515496  0.46913913    -0.79900
O31         O  0.08618889  0.49335632  0.45666760    -0.78500
O32         O  0.04665229  0.57074439  0.50964295    -0.80100
O33         O  0.95154553  0.56093669  0.51258340    -0.82000
O34         O  0.08508243  0.53996124  0.50615219    -0.78700
O35         O  0.92027199  0.52261571  0.51563007    -0.81400
O36         O  0.06141540  0.48864948  0.58971066    -0.77100
O37         O  0.04817122  0.49054498  0.42506685    -0.77200
O38         O  0.95338722  0.47924672  0.43145438    -0.76800
O39         O  0.96602551  0.47829338  0.59573553    -0.80300
O40         O  0.99952350  0.56503086  0.55935761    -0.79700
O41         O  0.99750712  0.56709099  0.46508065    -0.78100
Eu42       Eu  0.01208296  0.48411168  0.56920278     2.39800
Eu43       Eu  0.00259773  0.48526113  0.45182598     2.39600
Eu44       Eu  0.06610272  0.49038405  0.50607018     2.38400
Eu45       Eu  0.94902405  0.47771462  0.51481277     2.39900
Eu46       Eu  0.00146461  0.54232212  0.51155288     2.39800
O47         O  0.97267165  0.51074118  0.48383581    -0.92500
O48         O  0.03621432  0.51651274  0.53811428    -0.91400
C49         C  0.00206322  0.55663840  0.58590326     1.02700
C50         C  0.99642943  0.55982020  0.43819961     1.01400
C51         C  0.08727441  0.49125346  0.57929672     1.00800
C52         C  0.93892770  0.47529915  0.58971165     1.02800
C53         C  0.92758831  0.47606583  0.44185081     1.01700
C54         C  0.07529625  0.49306764  0.43090546     1.00600
C55         C  0.07394417  0.56543889  0.50771401     1.00600
C56         C  0.92583898  0.54997896  0.51410159     1.03300
H57         H  0.04132417  0.53015133  0.46704070     0.30600
O58         O  0.03144927  0.51669216  0.47963345    -1.04600
H59         H  0.96484857  0.52033097  0.55529043     0.32700
O60         O  0.97738525  0.50978826  0.54239288    -1.07200
C61         C  0.97446547  0.74798413  0.75330176     0.80600
N62         N  0.96403216  0.72937481  0.73309257    -0.77700
C63         C  0.96320674  0.73670506  0.70477890     0.83000
N64         N  0.97269728  0.76302499  0.69651688    -0.77700
C65         C  0.98329872  0.78212779  0.71609810     0.83100
N66         N  0.98488115  0.77440740  0.74469902    -0.79400
C67         C  0.99706582  0.25620479  0.74639593     0.80600
N68         N  0.98195220  0.23261448  0.73674741    -0.77700
C69         C  0.99076783  0.21874676  0.71216898     0.83000
N70         N  0.01456604  0.22826945  0.69795721    -0.77700
C71         C  0.02984579  0.25116517  0.70755567     0.83100
N72         N  0.02081589  0.26529942  0.73154529    -0.79400
C73         C  0.99726910  0.71985213  0.21490548     0.80600
N74         N  0.99817304  0.74758536  0.22513217    -0.77700
C75         C  0.99620450  0.75258842  0.25429459     0.83000
N76         N  0.99292732  0.72980003  0.27270347    -0.77700
C77         C  0.99166267  0.70235668  0.26260481     0.83100
N78         N  0.99395380  0.69760821  0.23386010    -0.79400
O79         O  0.99414302  0.03943753  0.38267824    -0.79800
O80         O  0.97814892  0.05841835  0.54747657    -0.81300
O81         O  0.93333916  0.07250241  0.45274263    -0.78300
O82         O  0.02638706  0.09259836  0.46242789    -0.76700
O83         O  0.06605391  0.06353739  0.46686265    -0.78500
O84         O  0.90468914  0.03254806  0.45962178    -0.79400
O85         O  0.97404212  0.08880969  0.50855379    -0.80800
O86         O  0.98473629  0.07767643  0.41266951    -0.81100
Eu87       Eu  0.98396031  0.06049077  0.46352198     2.39200
O88         O  0.01619439  0.04052658  0.49757273    -0.88600
O89         O  0.96298946  0.02237259  0.43718382    -0.92200
C90         C  0.98903449  0.06648482  0.38732177     1.02500
C91         C  0.97321076  0.08340115  0.53614187     1.02300
C92         C  0.90871487  0.05926570  0.45293831     1.02300
C93         C  0.05386370  0.08828850  0.46325228     1.00100
H94         H  0.94266393  0.04064307  0.50446831     0.29900
O95         O  0.95771062  0.02990261  0.49486718    -1.01000
H96         H  0.03051266  0.04531583  0.42646488     0.29900
O97         O  0.01978030  0.03307592  0.43956752    -1.03500
O98         O  0.99474261  0.96692108  0.55888840    -0.80700
O99         O  0.00562256  0.94543522  0.39557804    -0.80300
O100        O  0.91016754  0.99143659  0.51450504    -0.78700
O101        O  0.07246105  0.02198038  0.52244848    -0.82000
O102        O  0.07863009  0.00982529  0.42622897    -0.79900
O103        O  0.91607603  0.98786066  0.41891736    -0.78500
O104        O  0.96246699  0.91330594  0.47874261    -0.80100
O105        O  0.05490529  0.93178067  0.48519340    -0.82000
O106        O  0.92253033  0.94075420  0.46925680    -0.78700
O107        O  0.08376495  0.97188187  0.48150667    -0.81400
O108        O  0.94157622  0.00271314  0.55106746    -0.77100
O109        O  0.95311358  0.98846583  0.38610603    -0.77200
O110        O  0.04588295  0.99888010  0.39078561    -0.76800
O111        O  0.03523291  0.02042471  0.55512915    -0.80300
O112        O  0.00443458  0.92756284  0.53053082    -0.79700
O113        O  0.01138221  0.91649178  0.43545898    -0.78100
Eu114      Eu  0.98972180  0.01025827  0.52913146     2.39800
Eu115      Eu  0.99824739  0.99544003  0.41285219     2.39600
Eu116      Eu  0.93670366  0.99185908  0.46817406     2.38400
Eu117      Eu  0.05196830  0.01315993  0.47339153     2.39900
Eu118      Eu  0.00428638  0.94551451  0.47952513     2.39800
O119        O  0.03012525  0.97541952  0.44715245    -0.92500
O120        O  0.96812430  0.97231810  0.50299056    -0.91400
C121        C  0.99997209  0.93984093  0.55535694     1.02700
C122        C  0.01002579  0.92067944  0.40782787     1.01400
C123        C  0.91625165  0.99589269  0.54144430     1.00800
C124        C  0.06223690  0.02315685  0.54858653     1.02800
C125        C  0.07168333  0.00427312  0.39953754     1.01700
C126        C  0.92613329  0.98747618  0.39276396     1.00600
C127        C  0.93540406  0.91639386  0.47339810     1.00600
C128        C  0.07968172  0.94462576  0.48563742     1.03300
H129        H  0.96356441  0.94986500  0.43320494     0.30600
O130        O  0.97253147  0.96496082  0.44450301    -1.04600
H131        H  0.03859278  0.97524884  0.51979940     0.32700
O132        O  0.02573060  0.98339797  0.50553035    -1.07200
C133        C  0.24418102  0.25283476  0.51010045     0.80600
N134        N  0.22734333  0.23344853  0.49596978    -0.77700
C135        C  0.23655479  0.20640742  0.49040137     0.83000
N136        N  0.26297833  0.19829187  0.49939013    -0.77700
C137        C  0.28079096  0.21710457  0.51328345     0.83100
N138        N  0.27148816  0.24486013  0.51851208    -0.79400
C139        C  0.73709575  0.22028033  0.48146814     0.80600
N140        N  0.75339461  0.20698582  0.46096514    -0.77700
C141        C  0.77926277  0.21792342  0.45283447     0.83000
N142        N  0.78920860  0.24214694  0.46567640    -0.77700
C143        C  0.77347584  0.25601294  0.48615005     0.83100
N144        N  0.74714357  0.24512074  0.49408721    -0.79400
C145        C  0.73319191  0.74445907  0.47547869     0.80600
N146        N  0.74529745  0.71951620  0.48584678    -0.77700
C147        C  0.77430281  0.71499438  0.48225070     0.83000
N148        N  0.79059956  0.73561571  0.46897941    -0.77700
C149        C  0.77865843  0.76021627  0.45891562     0.83100
N150        N  0.75018193  0.76441135  0.46222565    -0.79400
C151        C  0.22657894  0.72739909  0.53228089     0.80600
N152        N  0.20511019  0.74689045  0.53627622    -0.77700
C153        C  0.21109123  0.77504847  0.54090450     0.83000
N154        N  0.23886136  0.78392647  0.54138027    -0.77700
C155        C  0.26084027  0.76498498  0.53764245     0.83100
N156        N  0.25471758  0.73642558  0.53290433    -0.79400
C157        C  0.72805022  0.99161574  0.20266211     0.80600
N158        N  0.70567548  0.98785061  0.22133127    -0.77700
C159        C  0.70993053  0.98721816  0.25020656     0.83000
N160        N  0.73692939  0.99064535  0.26072377    -0.77700
C161        C  0.75974655  0.99470990  0.24264338     0.83100
N162        N  0.75536043  0.99520301  0.21333123    -0.79400
O163        O  0.46152739  0.06162990  0.52041282    -0.79800
O164        O  0.46443858  0.89497436  0.51247815    -0.81300
O165        O  0.42547460  0.97859829  0.46974372    -0.78300
O166        O  0.43337838  0.96995969  0.56426935    -0.76700
O167        O  0.47029312  0.96938300  0.59721449    -0.78500
O168        O  0.45832679  0.98145491  0.43280990    -0.79400
O169        O  0.42955256  0.92950612  0.51744021    -0.80800
O170        O  0.42801790  0.02505253  0.52119912    -0.81100
Eu171      Eu  0.45248692  0.97790856  0.51562557     2.39200
O172        O  0.48432974  0.94780701  0.54103834    -0.88600
O173        O  0.47905503  0.00989442  0.48612735    -0.92200
C174        C  0.43525411  0.05209692  0.52220094     1.02500
C175        C  0.43806573  0.90291059  0.51617512     1.02300
C176        C  0.43234980  0.97977847  0.44266227     1.02300
C177        C  0.44350588  0.96695763  0.59010192     1.00100
H178        H  0.46689048  0.93862919  0.47067540     0.29900
O179        O  0.47952506  0.95038483  0.48251006    -1.01000
H180        H  0.47205406  0.01704884  0.55858955     0.29900
O181        O  0.48337349  0.00636981  0.54475080    -1.03500
O182        O  0.55820095  0.89722584  0.50196648    -0.80700
O183        O  0.55740393  0.06358703  0.51304076    -0.80300
O184        O  0.50780137  0.93683015  0.42685814    -0.78700
O185        O  0.51882758  0.92630381  0.59059818    -0.82000
O186        O  0.51790067  0.02206417  0.59661428    -0.79900
O187        O  0.50484732  0.03098392  0.43227341    -0.78500
O188        O  0.58914336  0.98197894  0.45861380    -0.80100
O189        O  0.59657705  0.97546202  0.55097773    -0.82000
O190        O  0.55222464  0.98251269  0.42580059    -0.78700
O191        O  0.56477684  0.97056335  0.58870609    -0.81400
O192        O  0.51032544  0.89927679  0.45913550    -0.77100
O193        O  0.50560984  0.06513752  0.46819434    -0.77200
O194        O  0.51444947  0.05930218  0.56399966    -0.76800
O195        O  0.51665465  0.89288720  0.55408662    -0.80300
O196        O  0.59226057  0.93315068  0.49979235    -0.79700
O197        O  0.59133204  0.02792121  0.50911090    -0.78100
Eu198      Eu  0.51105690  0.91993493  0.50826528     2.39800
Eu199      Eu  0.50975408  0.03882181  0.51493052     2.39600
Eu200      Eu  0.50669689  0.98248960  0.45344299     2.38400
Eu201      Eu  0.51537846  0.97565567  0.57005047     2.39900
Eu202      Eu  0.56834919  0.98023594  0.50703390     2.39800
O203        O  0.54150498  0.00778704  0.54026167    -0.92500
O204        O  0.53764891  0.95176985  0.47874333    -0.91400
C205        C  0.58435759  0.90633643  0.49891848     1.02700
C206        C  0.58377105  0.05463783  0.51105204     1.01400
C207        C  0.50961198  0.90975646  0.43319786     1.00800
C208        C  0.51919577  0.90002541  0.58103002     1.02800
C209        C  0.51711210  0.04925650  0.59000505     1.01700
C210        C  0.50460709  0.05735593  0.44127557     1.00600
C211        C  0.57925083  0.98203412  0.43259901     1.00600
C212        C  0.59040627  0.97082631  0.57771774     1.03300
H213        H  0.54855082  0.02412075  0.46944083     0.30600
O214        O  0.53736538  0.01143847  0.48178031    -1.04600
H215        H  0.55528084  0.93556156  0.54653968     0.32700
O216        O  0.54213381  0.94834811  0.53665955    -1.07200
C217        C  0.25576897  0.98980821  0.74286736     0.80600
N218        N  0.27064876  0.97086521  0.72613779    -0.77700
C219        C  0.26255923  0.96503662  0.69868058     0.83000
N220        N  0.23950004  0.97861938  0.68745020    -0.77700
C221        C  0.22401162  0.99778395  0.70323500     0.83100
N222        N  0.23214899  0.00356278  0.73129996    -0.79400
C223        C  0.74069109  0.98760143  0.75835117     0.80600
N224        N  0.76513540  0.99510626  0.74342641    -0.77700
C225        C  0.77237215  0.98025746  0.71880227     0.83000
N226        N  0.75506664  0.95828467  0.70966225    -0.77700
C227        C  0.73108397  0.95067531  0.72465453     0.83100
N228        N  0.72400423  0.96555393  0.74866146    -0.79400
C229        C  0.27862148  0.99759315  0.21479939     0.80600
N230        N  0.30200278  0.99578326  0.23243769    -0.77700
C231        C  0.29887797  0.99313294  0.26135300     0.83000
N232        N  0.27206204  0.99287324  0.27289879    -0.77700
C233        C  0.24820333  0.99493388  0.25597372     0.83100
N234        N  0.25146320  0.99685231  0.22653881    -0.79400
O235        O  0.57973964  0.00399038  0.01885446    -0.79800
O236        O  0.41439512  0.99729033  0.02149093    -0.81300
O237        O  0.49575077  0.04556393  0.05604539    -0.78300
O238        O  0.49681917  0.94979250  0.05171359    -0.76700
O239        O  0.49963186  0.91670215  0.01495369    -0.78500
O240        O  0.49265019  0.08165240  0.02216262    -0.79400
O241        O  0.45061637  0.99802857  0.05521883    -0.80800
O242        O  0.54501683  0.99892568  0.05381665    -0.81100
Eu243      Eu  0.49733494  0.99886171  0.03043980     2.39200
O244        O  0.46938977  0.96901143  0.00016658    -0.88600
O245        O  0.52439868  0.03169085  0.00227654    -0.92200
C246        C  0.57154689  0.00099700  0.04548625     1.02500
C247        C  0.42378770  0.99805738  0.04786642     1.02300
C248        C  0.49375357  0.07238750  0.04841512     1.02300
C249        C  0.49782822  0.92362127  0.04190357     1.00100
H250        H  0.45352229  0.03865927  0.01521616     0.29900
O251        O  0.46587457  0.02754336  0.00257771    -1.01000
H252        H  0.54059506  0.96040879  0.01102207     0.29900
O253        O  0.52788316  0.97240150  0.99964820    -1.03500
O254        O  0.41170520  0.99774695  0.92576101    -0.80700
O255        O  0.57820717  0.00909398  0.92375408    -0.80300
O256        O  0.44323262  0.08121192  0.97466453    -0.78700
O257        O  0.45364203  0.91635344  0.97115038    -0.82000
O258        O  0.54954552  0.92227260  0.96669493    -0.79900
O259        O  0.53956431  0.08723687  0.97275906    -0.78500
O260        O  0.48476728  0.05188363  0.89227815    -0.80100
O261        O  0.49713599  0.95854682  0.88701232    -0.82000
O262        O  0.48766606  0.08563024  0.92847450    -0.78700
O263        O  0.49879807  0.92180696  0.92027582    -0.81400
O264        O  0.41125200  0.04330432  0.97387509    -0.77100
O265        O  0.57581840  0.05375162  0.97323028    -0.77200
O266        O  0.58193295  0.95974046  0.96872339    -0.76800
O267        O  0.41614163  0.94834743  0.97382614    -0.80300
O268        O  0.44654679  0.00038119  0.89063198    -0.79700
O269        O  0.54258658  0.00923158  0.88934302    -0.78100
Eu270      Eu  0.43723337  0.99738970  0.97295232     2.39800
Eu271      Eu  0.55481678  0.00521528  0.97140929     2.39600
Eu272      Eu  0.49289238  0.06019272  0.97414710     2.38400
Eu273      Eu  0.49994626  0.94286227  0.96899278     2.39900
Eu274      Eu  0.49485135  0.00418048  0.91328525     2.39800
O275        O  0.52675187  0.97564444  0.94077390    -0.92500
O276        O  0.46462686  0.02981388  0.94472159    -0.91400
C277        C  0.41993720  0.99859834  0.89898215     1.02700
C278        C  0.56937935  0.01030284  0.89725611     1.01400
C279        C  0.41729563  0.07051818  0.97440529     1.00800
C280        C  0.42652803  0.92247061  0.97314104     1.02800
C281        C  0.57562029  0.93260501  0.96702402     1.01700
C282        C  0.56656149  0.07996413  0.97295378     1.00600
C283        C  0.48323643  0.07792437  0.90212949     1.00600
C284        C  0.49786982  0.93164005  0.89409899     1.03300
H285        H  0.53425924  0.04737999  0.93126215     0.30600
O286        O  0.52341672  0.03402762  0.94314938    -1.04600
H287        H  0.45630752  0.95904903  0.92951311     0.32700
O288        O  0.46791460  0.97139727  0.94173493    -1.07200
C289        C  0.47894727  0.21247793  0.28194109     0.80600
N290        N  0.47805321  0.24087847  0.27359164    -0.77700
C291        C  0.47316974  0.24770596  0.24513826     0.83000
N292        N  0.46972593  0.22607992  0.22549152    -0.77700
C293        C  0.47068524  0.19800053  0.23373638     0.83100
N294        N  0.47516515  0.19144999  0.26182470    -0.79400
C295        C  0.51961902  0.73204391  0.22584574     0.80600
N296        N  0.52031789  0.73747052  0.25493180    -0.77700
C297        C  0.51820189  0.76516707  0.26472460     0.83000
N298        N  0.51467771  0.78698291  0.24543585    -0.77700
C299        C  0.51349029  0.78188677  0.21671252     0.83100
N300        N  0.51617792  0.75439804  0.20687173    -0.79400
C301        C  0.51741845  0.69511240  0.76257720     0.80600
N302        N  0.52430138  0.70210965  0.73446009    -0.77700
C303        C  0.52412641  0.73057296  0.72594316     0.83000
N304        N  0.51673494  0.75123013  0.74533782    -0.77700
C305        C  0.50974963  0.74442642  0.77286002     0.83100
N306        N  0.51027771  0.71656082  0.78131570    -0.79400
C307        C  0.48414874  0.21872738  0.73227370     0.80600
N308        N  0.49198697  0.24328236  0.74693440    -0.77700
C309        C  0.47637531  0.25174030  0.77068558     0.83000
N310        N  0.45320150  0.23571122  0.77900941    -0.77700
C311        C  0.44521736  0.21167818  0.76437109     0.83100
N312        N  0.46097047  0.20317212  0.74136104    -0.79400
O313        O  0.00445030  0.41546704  0.01078712    -0.79800
O314        O  0.99946213  0.58170876  0.02140291    -0.81300
O315        O  0.05766451  0.49868780  0.03950975    -0.78300
O316        O  0.96615244  0.49400360  0.05857309    -0.76700
O317        O  0.92469893  0.49455037  0.03163272    -0.78500
O318        O  0.08635171  0.50248350  0.99936897    -0.79400
O319        O  0.00794228  0.54418322  0.05257086    -0.80800
O320        O  0.01230433  0.44923283  0.04621364    -0.81100
Eu321      Eu  0.00682637  0.49801263  0.02566745     2.39200
O322        O  0.97159152  0.52802494  0.00513247    -0.88600
O323        O  0.03047582  0.47107023  0.98981925    -0.92200
C324        C  0.01005178  0.42288662  0.03725193     1.02500
C325        C  0.00440871  0.57131567  0.04686613     1.02300
C326        C  0.08248005  0.50051426  0.02695197     1.02300
C327        C  0.93856865  0.49313355  0.05587743     1.00100
H328        H  0.04322025  0.54218026  0.00446799     0.29900
O329        O  0.02957581  0.53044057  0.99385512    -1.01000
H330        H  0.96373981  0.45590658  0.01425194     0.29900
O331        O  0.97301357  0.46909293  0.00093467    -1.03500
O332        O  0.98621792  0.58764255  0.92766455    -0.80700
O333        O  0.98902018  0.42167665  0.91604439    -0.80300
O334        O  0.07592179  0.55201865  0.95698500    -0.78700
O335        O  0.91394567  0.54612662  0.98816635    -0.82000
O336        O  0.91523833  0.45076503  0.97915092    -0.79900
O337        O  0.07773097  0.45537052  0.95217167    -0.78500
O338        O  0.02529824  0.51561126  0.87966351    -0.80100
O339        O  0.93274198  0.50960734  0.89790657    -0.82000
O340        O  0.06616006  0.51507665  0.90762286    -0.78700
O341        O  0.90524686  0.50405723  0.93884836    -0.81400
O342        O  0.04065001  0.58543500  0.96589822    -0.77100
O343        O  0.04372765  0.41952978  0.95671799    -0.77200
O344        O  0.95024207  0.41696788  0.97087054    -0.76800
O345        O  0.94665539  0.58285404  0.98172306    -0.80300
O346        O  0.97850054  0.55456841  0.89160138    -0.79700
O347        O  0.98151741  0.45928076  0.88461004    -0.78100
Eu348      Eu  0.99415233  0.56048582  0.97290165     2.39800
Eu349      Eu  0.99663086  0.44236804  0.96470676     2.39600
Eu350      Eu  0.05343538  0.50330813  0.95774902     2.38400
Eu351      Eu  0.93795092  0.49916619  0.98015259     2.39900
Eu352      Eu  0.98406022  0.50529247  0.91142411     2.39800
O353        O  0.96146304  0.47262386  0.94352126    -0.92500
O354        O  0.01766493  0.53297580  0.93737792    -0.91400
C355        C  0.98055770  0.58074288  0.90116356     1.02700
C356        C  0.98403450  0.43208901  0.89053322     1.01400
C357        C  0.06698845  0.57829270  0.96042203     1.00800
C358        C  0.92092989  0.57319910  0.98684536     1.02800
C359        C  0.92384039  0.42443222  0.97550706     1.01700
C360        C  0.06995843  0.42836285  0.95331873     1.00600
C361        C  0.05255485  0.51948709  0.88365728     1.00600
C362        C  0.90836509  0.50890508  0.91153534     1.03300
H363        H  0.02960227  0.46430441  0.91694950     0.30600
O364        O  0.01963874  0.47478262  0.93199219    -1.04600
H365        H  0.94648629  0.54421402  0.93939335     0.32700
O366        O  0.96062736  0.53158357  0.94797034    -1.07200
C367        C  0.78028223  0.47476332  0.26937119     0.80600
N368        N  0.79653106  0.47887271  0.24509444    -0.77700
C369        C  0.78400868  0.48029532  0.21866099     0.83000
N370        N  0.75523595  0.47728241  0.21639351    -0.77700
C371        C  0.73847657  0.47305380  0.24005521     0.83100
N372        N  0.75091839  0.47213388  0.26689419    -0.79400
C373        C  0.25914777  0.50819095  0.22568442     0.80600
N374        N  0.23826489  0.50530737  0.20530568    -0.77700
C375        C  0.21045181  0.50083124  0.21281118     0.83000
N376        N  0.20328982  0.49938494  0.24112356    -0.77700
C377        C  0.22367475  0.50238201  0.26208915     0.83100
N378        N  0.25191913  0.50640322  0.25435408    -0.79400
C379        C  0.26500066  0.52238530  0.78783794     0.80600
N380        N  0.25756932  0.50913117  0.76230772    -0.77700
C381        C  0.23387332  0.51846212  0.74727093     0.83000
N382        N  0.21813622  0.54070360  0.75785598    -0.77700
C383        C  0.22532396  0.55393877  0.78289709     0.83100
N384        N  0.24852920  0.54452323  0.79782160    -0.79400
C385        C  0.76826914  0.48060227  0.73667931     0.80600
N386        N  0.77784287  0.50701229  0.74506039    -0.77700
C387        C  0.76596092  0.52094985  0.76771535     0.83000
N388        N  0.74402881  0.50821843  0.78242901    -0.77700
C389        C  0.73366970  0.48185281  0.77448727     0.83100
N390        N  0.74609196  0.46771727  0.75156842    -0.79400
C391        C  0.23928374  0.28180185  0.98498467     0.80600
N392        N  0.24780944  0.25613498  0.97294772    -0.77700
C393        C  0.26979721  0.24079211  0.98534293     0.83000
N394        N  0.28334783  0.25157692  0.00900203    -0.77700
C395        C  0.27536166  0.27696833  0.02081242     0.83100
N396        N  0.25343600  0.29203320  0.00870161    -0.79400
O397        O  0.50095328  0.44335935  0.10156396    -0.79800
O398        O  0.49335959  0.42279083  0.93629331    -0.81300
O399        O  0.44216997  0.40980456  0.02995703    -0.78300
O400        O  0.53407147  0.38950268  0.02590848    -0.76700
O401        O  0.57539309  0.41647140  0.02059785    -0.78500
O402        O  0.41554283  0.45109061  0.02456407    -0.79400
O403        O  0.48687347  0.39314060  0.97555730    -0.80800
O404        O  0.49001782  0.40539859  0.07164607    -0.81100
Eu405      Eu  0.49298534  0.42224529  0.02051363     2.41000
O406        O  0.52628072  0.44085739  0.98625206    -0.88600
O407        O  0.47298031  0.46108129  0.04632876    -0.92200
C408        C  0.49396248  0.41670062  0.09702920     1.02500
C409        C  0.48854921  0.39778552  0.94790574     1.02300
C410        C  0.41821505  0.42396269  0.03033150     1.02300
C411        C  0.56169598  0.39275078  0.02630973     1.00100
H412        H  0.45340502  0.44246261  0.97832653     0.29900
O413        O  0.46838047  0.45319591  0.98818044    -1.01000
H414        H  0.53905245  0.43637506  0.05788743     0.29900
O415        O  0.52935307  0.44886137  0.04435538    -1.03500
O416        O  0.50899999  0.51638220  0.92403417    -0.80700
O417        O  0.51839579  0.53630969  0.08962094    -0.80300
O418        O  0.42161565  0.49185306  0.96760023    -0.78700
O419        O  0.58432422  0.45795911  0.96124816    -0.82000
O420        O  0.58853425  0.46798783  0.05744819    -0.79900
O421        O  0.42740965  0.50102600  0.06335144    -0.78500
O422        O  0.47793756  0.56983929  0.00470711    -0.80100
O423        O  0.56845937  0.54877160  0.99871898    -0.82000
O424        O  0.43633962  0.54373948  0.01119869    -0.78700
O425        O  0.59609920  0.50809005  0.00291502    -0.81400
O426        O  0.45399639  0.47939397  0.93228721    -0.77100
O427        O  0.46350895  0.49674292  0.09693574    -0.77200
O428        O  0.55669290  0.47926117  0.09368360    -0.76800
O429        O  0.54712884  0.46193690  0.92884002    -0.80300
O430        O  0.51771843  0.55355805  0.95559470    -0.79700
O431        O  0.52418290  0.56503675  0.04963705    -0.78100
Eu432      Eu  0.50177808  0.47228028  0.95425690     2.39800
Eu433      Eu  0.50909384  0.48671252  0.07148667     2.39600
Eu434      Eu  0.44794427  0.49187613  0.01460439     2.38400
Eu435      Eu  0.56302164  0.46698921  0.01038262     2.39900
Eu436      Eu  0.51773409  0.53570986  0.00563939     2.39800
O437        O  0.54278752  0.50522135  0.03763665    -0.92500
O438        O  0.48119927  0.51040528  0.98084606    -0.91400
C439        C  0.51419668  0.54329639  0.92986710     1.02700
C440        C  0.52303102  0.56103476  0.07729363     1.01400
C441        C  0.42851100  0.48655720  0.94089797     1.00800
C442        C  0.57397131  0.45812179  0.93510609     1.02800
C443        C  0.58202980  0.47244373  0.08433065     1.01700
C444        C  0.43700092  0.50120383  0.08970978     1.00600
C445        C  0.45044112  0.56770960  0.00784450     1.00600
C446        C  0.59283509  0.53540538  0.99835742     1.03300
H447        H  0.47588492  0.53292696  0.05036018     0.30600
O448        O  0.48443249  0.51736858  0.03944418    -1.04600
H449        H  0.55135875  0.50603128  0.96477705     0.32700
O450        O  0.53812413  0.49795583  0.97880088    -1.07200
C451        C  0.72555759  0.76361912  0.95710419     0.80600
N452        N  0.70795600  0.74065536  0.95164052    -0.77700
C453        C  0.71782927  0.71329533  0.95317070     0.83000
N454        N  0.74557019  0.70868776  0.96041581    -0.77700
C455        C  0.76379309  0.73092844  0.96613002     0.83100
N456        N  0.75382125  0.75877421  0.96451865    -0.79400
C457        C  0.27173359  0.75902160  0.98644309     0.80600
N458        N  0.24569888  0.74982023  0.97572105    -0.77700
C459        C  0.23880916  0.72101018  0.97647769     0.83000
N460        N  0.25783576  0.70201698  0.98795187    -0.77700
C461        C  0.28345082  0.71091987  0.99850939     0.83100
N462        N  0.29036860  0.73931160  0.99762444    -0.79400
C463        C  0.75575963  0.27674997  0.99862016     0.80600
N464        N  0.74156107  0.25467169  0.98490101    -0.77700
C465        C  0.71804332  0.24215477  0.99787943     0.83000
N466        N  0.70936810  0.25166341  0.02427923    -0.77700
C467        C  0.72360857  0.27314104  0.03810567     0.83100
N468        N  0.74649481  0.28569369  0.02503124    -0.79400
C469        C  0.62114150  0.34848654  0.06300087     0.19100
C470        C  0.64916185  0.35569190  0.07188950    -0.19000
C471        C  0.66912998  0.33411429  0.07810788    -0.11300
C472        C  0.66143844  0.30477208  0.07510541     0.21300
C473        C  0.63242909  0.29771755  0.06976065    -0.20700
C474        C  0.61239343  0.31934825  0.06372507    -0.11500
C475        C  0.68320467  0.28165308  0.07102250    -0.15700
C476        C  0.71048009  0.28780270  0.06309499    -0.29500
C477        C  0.60241454  0.37198473  0.05221659    -0.03800
C478        C  0.57879335  0.36784858  0.03579184    -0.40300
H479        H  0.65613676  0.37807818  0.07250059     0.12500
H480        H  0.69081826  0.34075458  0.08354888     0.12100
H481        H  0.62568429  0.27532944  0.06797660     0.11500
H482        H  0.59053397  0.31296487  0.05858706     0.11800
H483        H  0.67468088  0.26035343  0.06576611     0.14500
H484        H  0.72036740  0.30822758  0.06892776     0.13300
H485        H  0.60908597  0.39402552  0.05712025     0.11000
H486        H  0.57085937  0.34636319  0.03075524     0.13000
C487        C  0.35256501  0.67116299  0.01891703     0.19100
C488        C  0.38047711  0.67367036  0.00750687    -0.19000
C489        C  0.39897436  0.64989211  0.00750611    -0.11300
C490        C  0.38983450  0.62325084  0.01935457     0.21300
C491        C  0.36259942  0.62151497  0.03247971    -0.20700
C492        C  0.34420547  0.64522256  0.03245738    -0.11500
C493        C  0.40705303  0.59635939  0.01765100    -0.15700
C494        C  0.43440609  0.59506681  0.00820307    -0.29500
C495        C  0.33177666  0.69484158  0.01412013    -0.03800
C496        C  0.30383558  0.68910252  0.00891013    -0.40300
H497        H  0.38742617  0.69358264  0.99720133     0.12500
H498        H  0.41975689  0.65245933  0.99723047     0.12100
H499        H  0.35519403  0.60148159  0.04221928     0.11500
H500        H  0.32318509  0.64294848  0.04245246     0.11800
H501        H  0.39663093  0.57651547  0.02489135     0.14500
H502        H  0.44609926  0.61442045  0.00197004     0.13300
H503        H  0.34005413  0.71668003  0.01121860     0.11000
H504        H  0.29597296  0.66696315  0.00954232     0.13000
C505        C  0.64156857  0.59614483  0.96851820     0.19100
C506        C  0.63723548  0.61740935  0.94726405    -0.19000
C507        C  0.65863316  0.63781439  0.94122272    -0.11300
C508        C  0.68470876  0.63753826  0.95667154     0.21300
C509        C  0.68985496  0.61521592  0.97657611    -0.20700
C510        C  0.66840191  0.59477690  0.98267983    -0.11500
C511        C  0.70591272  0.66136992  0.95428296    -0.15700
C512        C  0.69781473  0.68886373  0.94937109    -0.29500
C513        C  0.61680078  0.57743649  0.97656575    -0.03800
C514        C  0.61886360  0.55249661  0.99145649    -0.40300
H515        H  0.61690235  0.61870028  0.93577951     0.12500
H516        H  0.65443362  0.65414326  0.92496685     0.12100
H517        H  0.70992002  0.61451695  0.98858331     0.11500
H518        H  0.67253412  0.57894552  0.99939582     0.11800
H519        H  0.72810193  0.65676861  0.96028209     0.14500
H520        H  0.67539139  0.69397981  0.94507637     0.13300
H521        H  0.59562453  0.58445873  0.96934185     0.11000
H522        H  0.63971314  0.54360083  0.99715335     0.13000
C523        C  0.36366800  0.36968234  0.06284888     0.19100
C524        C  0.36527098  0.34081430  0.07208084    -0.19000
C525        C  0.34044547  0.32352962  0.07282586    -0.11300
C526        C  0.31372810  0.33492698  0.06393662     0.21300
C527        C  0.31154402  0.36475078  0.05918361    -0.20700
C528        C  0.33625220  0.38205589  0.05874481    -0.11500
C529        C  0.28948936  0.31637701  0.05398913    -0.15700
C530        C  0.29414095  0.28990680  0.04302643    -0.29500
C531        C  0.39079650  0.38548985  0.05575606    -0.03800
C532        C  0.39144838  0.40852292  0.03787681    -0.40300
H533        H  0.38596837  0.33106626  0.07675455     0.12500
H534        H  0.34266208  0.30094453  0.07847184     0.12100
H535        H  0.29105965  0.37430708  0.05329725     0.11500
H536        H  0.33373470  0.40473658  0.05375639     0.11800
H537        H  0.26898040  0.32684441  0.04964385     0.14500
H538        H  0.31462864  0.27919384  0.04640224     0.13300
H539        H  0.41098844  0.37702602  0.06414764     0.11000
H540        H  0.37171513  0.41729251  0.02896824     0.13000
C541        C  0.63999116  0.45968129  0.88288045     0.19100
C542        C  0.66774311  0.44766104  0.88024404    -0.19000
C543        C  0.68511423  0.45367654  0.85585638    -0.11300
C544        C  0.67529495  0.47241279  0.83398061     0.21300
C545        C  0.64774122  0.48449767  0.83670519    -0.20700
C546        C  0.63019288  0.47799819  0.86056166    -0.11500
C547        C  0.69499207  0.48394422  0.81121031    -0.15700
C548        C  0.71151022  0.46779254  0.79333317    -0.29500
C549        C  0.62244231  0.45524732  0.90992091    -0.03800
C550        C  0.59331999  0.45554094  0.90943695    -0.40300
H551        H  0.67615754  0.43397759  0.89728689     0.12500
H552        H  0.70673037  0.44493440  0.85482410     0.12100
H553        H  0.64005173  0.49971746  0.82063550     0.11500
H554        H  0.60948571  0.48859952  0.86213678     0.11800
H555        H  0.69573872  0.50735339  0.80915958     0.14500
H556        H  0.70957665  0.44438831  0.79351104     0.13300
H557        H  0.63362612  0.45304503  0.93046580     0.11000
H558        H  0.58263131  0.45624564  0.88850993     0.13000
C559        C  0.35718422  0.50213448  0.89886799     0.19100
C560        C  0.33347031  0.51991426  0.90469733    -0.19000
C561        C  0.31287007  0.52563414  0.88337773    -0.11300
C562        C  0.31503621  0.51356695  0.85549766     0.21300
C563        C  0.33834748  0.49504400  0.84966245    -0.20700
C564        C  0.35917833  0.48935352  0.87113410    -0.11500
C565        C  0.29265327  0.52196646  0.83371371    -0.15700
C566        C  0.28911034  0.51154496  0.80644062    -0.29500
C567        C  0.37901612  0.49775476  0.92241276    -0.03800
C568        C  0.40626080  0.48879175  0.91776812    -0.40300
H569        H  0.33108081  0.52990254  0.92577759     0.12500
H570        H  0.29515865  0.53988256  0.88873707     0.12100
H571        H  0.34080342  0.48516786  0.82859720     0.11500
H572        H  0.37661795  0.47483069  0.86587759     0.11800
H573        H  0.27753975  0.53820268  0.84123184     0.14500
H574        H  0.30308347  0.49477275  0.79807117     0.13300
H575        H  0.37283209  0.50375205  0.94430600     0.11000
H576        H  0.41325110  0.48391411  0.89589694     0.13000
C577        C  0.36737749  0.52048977  0.13255821     0.19100
C578        C  0.34284974  0.53662397  0.12548237    -0.19000
C579        C  0.32005148  0.53926091  0.14501502    -0.11300
C580        C  0.32086320  0.52562329  0.17221136     0.21300
C581        C  0.34591723  0.51040355  0.18004949    -0.20700
C582        C  0.36901000  0.50789082  0.16039725    -0.11500
C583        C  0.29363411  0.52525459  0.18939090    -0.15700
C584        C  0.28926269  0.51307833  0.21569902    -0.29500
C585        C  0.38929625  0.51574405  0.10932061    -0.03800
C586        C  0.41643084  0.50650188  0.11382855    -0.40300
H587        H  0.34091894  0.54663216  0.10433792     0.12500
H588        H  0.30108580  0.55111089  0.13825846     0.12100
H589        H  0.34732238  0.49939571  0.20067504     0.11500
H590        H  0.38735835  0.49496095  0.16664894     0.11800
H591        H  0.27493609  0.53413329  0.17832809     0.14500
H592        H  0.30704206  0.50536969  0.22881020     0.13300
H593        H  0.38269052  0.52043637  0.08722342     0.11000
H594        H  0.42416170  0.50309034  0.13573580     0.13000
C595        C  0.67145584  0.45707363  0.19490135     0.19100
C596        C  0.66790403  0.43960869  0.17026626    -0.19000
C597        C  0.64527997  0.44427788  0.15095076    -0.11300
C598        C  0.62549463  0.46668148  0.15570877     0.21300
C599        C  0.62789392  0.48313386  0.18121618    -0.20700
C600        C  0.65084898  0.47860603  0.20057008    -0.11500
C601        C  0.60213846  0.47285018  0.13446466    -0.15700
C602        C  0.60546836  0.46846711  0.10573080    -0.29500
C603        C  0.69918540  0.45452745  0.21088221    -0.03800
C604        C  0.70715726  0.46900053  0.23502160    -0.40300
H605        H  0.68336990  0.42281322  0.16531804     0.12500
H606        H  0.64347954  0.43038110  0.13218585     0.12100
H607        H  0.61261807  0.50024104  0.18559613     0.11500
H608        H  0.65298300  0.49269819  0.21912565     0.11800
H609        H  0.58205139  0.48174806  0.14260520     0.14500
H610        H  0.62614159  0.46124506  0.09742378     0.13300
H611        H  0.71575564  0.44203812  0.19987281     0.11000
H612        H  0.69172050  0.48049478  0.24833778     0.13000
C613        C  0.82668102  0.68132969  0.98790922     0.19100
C614        C  0.82776246  0.65694599  0.00608114    -0.19000
C615        C  0.85129293  0.63817267  0.00550935    -0.11300
C616        C  0.87442662  0.64303535  0.98636774     0.21300
C617        C  0.87385291  0.66794186  0.96876961    -0.20700
C618        C  0.85016039  0.68685879  0.96936910    -0.11500
C619        C  0.89923585  0.62254819  0.98421305    -0.15700
C620        C  0.89718447  0.59420066  0.99114701    -0.29500
C621        C  0.79892678  0.69739390  0.98637549    -0.03800
C622        C  0.79405478  0.72335847  0.97367379    -0.40300
H623        H  0.80991456  0.65198707  0.02045867     0.12500
H624        H  0.85114381  0.61987739  0.02012008     0.12100
H625        H  0.89140836  0.67230538  0.95386778     0.11500
H626        H  0.84980656  0.70501646  0.95457344     0.11800
H627        H  0.91925203  0.63066160  0.97493572     0.14500
H628        H  0.87671899  0.58536018  0.99845853     0.13300
H629        H  0.78033795  0.68564091  0.99481238     0.11000
H630        H  0.81168051  0.73720719  0.96666033     0.13000
C631        C  0.80481878  0.34256364  0.98277115     0.19100
C632        C  0.83261346  0.33350730  0.97463904    -0.19000
C633        C  0.85532494  0.35370463  0.97241316    -0.11300
C634        C  0.85058707  0.38326400  0.97839432     0.21300
C635        C  0.82259879  0.39211821  0.98551651    -0.20700
C636        C  0.80013056  0.37212210  0.98771453    -0.11500
C637        C  0.87358671  0.40594249  0.97735960    -0.15700
C638        C  0.90214454  0.40075363  0.97648498    -0.29500
C639        C  0.78069657  0.32239284  0.98982176    -0.03800
C640        C  0.77916575  0.29368756  0.98444876    -0.40300
H641        H  0.83710123  0.31089166  0.97086875     0.12500
H642        H  0.87639553  0.34596505  0.96617657     0.12100
H643        H  0.81813295  0.41464702  0.99002789     0.11500
H644        H  0.77900773  0.37980136  0.99410267     0.11800
H645        H  0.86647763  0.42830309  0.97798193     0.14500
H646        H  0.91009835  0.37875108  0.97624477     0.13300
H647        H  0.76290963  0.33204331  0.00173266     0.11000
H648        H  0.79490978  0.28289171  0.97089886     0.13000
C649        C  0.18330345  0.66385427  0.95164143     0.19100
C650        C  0.15719232  0.66928309  0.96611519    -0.19000
C651        C  0.13463417  0.64888286  0.96534892    -0.11300
C652        C  0.13772297  0.62270774  0.94993230     0.21300
C653        C  0.16347813  0.61796995  0.93472660    -0.20700
C654        C  0.18593795  0.63820199  0.93561371    -0.11500
C655        C  0.11580371  0.59890820  0.95071421    -0.15700
C656        C  0.08806432  0.60247901  0.95858407    -0.29500
C657        C  0.20980082  0.68143994  0.95655425    -0.03800
C658        C  0.21099864  0.70931266  0.96541102    -0.40300
H659        H  0.15475246  0.68840261  0.97936771     0.12500
H660        H  0.11549510  0.65320185  0.97798335     0.12100
H661        H  0.16659023  0.59810190  0.92273259     0.11500
H662        H  0.20594137  0.63326391  0.92454355     0.11800
H663        H  0.12287522  0.57747453  0.94427834     0.14500
H664        H  0.08012964  0.62390249  0.96366637     0.13300
H665        H  0.23001073  0.66981842  0.95409393     0.11000
H666        H  0.19176296  0.72258375  0.96613474     0.13000
C667        C  0.14353272  0.38773055  0.95905613     0.19100
C668        C  0.17095857  0.39693307  0.96813352    -0.19000
C669        C  0.19288481  0.37708660  0.97384521    -0.11300
C670        C  0.18838746  0.34724926  0.97034376     0.21300
C671        C  0.16122660  0.33772506  0.96045431    -0.20700
C672        C  0.13899103  0.35774333  0.95488744    -0.11500
C673        C  0.21194248  0.32737024  0.97985895    -0.15700
C674        C  0.21536611  0.29929735  0.97225656    -0.29500
C675        C  0.12069561  0.41043506  0.95537476    -0.03800
C676        C  0.09226700  0.40521827  0.95176006    -0.40300
H677        H  0.17533605  0.41970473  0.97154067     0.12500
H678        H  0.21347092  0.38516900  0.98153910     0.12100
H679        H  0.15679947  0.31488198  0.95789834     0.11500
H680        H  0.11838136  0.34949345  0.94765952     0.11800
H681        H  0.22794959  0.33698530  0.99414183     0.14500
H682        H  0.20093722  0.28926810  0.95670220     0.13300
H683        H  0.12750269  0.43281164  0.95785260     0.11000
H684        H  0.08450569  0.38312803  0.95028922     0.13000
C685        C  0.80491969  0.55646515  0.82683298     0.19100
C686        C  0.80269186  0.54749437  0.85579290    -0.19000
C687        C  0.82742222  0.54195502  0.87205569    -0.11300
C688        C  0.85493755  0.54534374  0.85958436     0.21300
C689        C  0.85716815  0.55773960  0.83193201    -0.20700
C690        C  0.83240736  0.56341355  0.81567277    -0.11500
C691        C  0.88163043  0.53593247  0.87454344    -0.15700
C692        C  0.88189754  0.51555312  0.89538094    -0.29500
C693        C  0.77917646  0.55248685  0.80808122    -0.03800
C694        C  0.78197601  0.54558906  0.77996066    -0.40300
H695        H  0.78180920  0.54263726  0.86523285     0.12500
H696        H  0.82477954  0.53417909  0.89399978     0.12100
H697        H  0.87814542  0.56166143  0.82228895     0.11500
H698        H  0.83512019  0.57178965  0.79396827     0.11800
H699        H  0.90190623  0.54580307  0.86784226     0.14500
H700        H  0.86204366  0.50536874  0.90263458     0.13300
H701        H  0.75927774  0.54639248  0.81904225     0.11000
H702        H  0.80136125  0.55154871  0.76821246     0.13000
C703        C  0.15229375  0.58036082  0.80371834     0.19100
C704        C  0.12701230  0.56717073  0.79337869    -0.19000
C705        C  0.10467122  0.56001442  0.81239039    -0.11300
C706        C  0.10732541  0.56607875  0.84211364     0.21300
C707        C  0.13082538  0.58282190  0.85160998    -0.20700
C708        C  0.15318036  0.58996544  0.83258112    -0.11500
C709        C  0.08769334  0.55357916  0.86424193    -0.15700
C710        C  0.06925415  0.53150074  0.85943537    -0.29500
C711        C  0.17852686  0.57848057  0.78549427    -0.03800
C712        C  0.20456177  0.57322640  0.79728031    -0.40300
H713        H  0.12552622  0.56013116  0.77104658     0.12500
H714        H  0.08621245  0.54854008  0.80383203     0.12100
H715        H  0.13287895  0.58871404  0.87423090     0.11500
H716        H  0.17180540  0.60138011  0.84095972     0.11800
H717        H  0.08982699  0.56172793  0.88625376     0.14500
H718        H  0.06542325  0.52292822  0.83795524     0.13300
H719        H  0.17522083  0.57364241  0.76268943     0.11000
H720        H  0.20837167  0.57733352  0.82008940     0.13000
C721        C  0.17128361  0.50018355  0.13937761     0.19100
C722        C  0.17507614  0.51509455  0.11310575    -0.19000
C723        C  0.15443674  0.51295708  0.09111261    -0.11300
C724        C  0.12975165  0.49562603  0.09511043     0.21300
C725        C  0.12639454  0.48022269  0.12104821    -0.20700
C726        C  0.14699113  0.48223015  0.14286649    -0.11500
C727        C  0.10581624  0.49455232  0.07406117    -0.15700
C728        C  0.10822742  0.50076572  0.04570104    -0.29500
C729        C  0.19331345  0.50328694  0.16239054    -0.03800
C730        C  0.18796176  0.49785733  0.19055368    -0.40300
H731        H  0.19375205  0.52889220  0.10983993     0.12500
H732        H  0.15744209  0.52556361  0.07157744     0.12100
H733        H  0.10760432  0.46662628  0.12452510     0.11500
H734        H  0.14378376  0.46947480  0.16224955     0.11800
H735        H  0.08494849  0.48787221  0.08258491     0.14500
H736        H  0.12903741  0.50586925  0.03613716     0.13300
H737        H  0.21450572  0.51116168  0.15596537     0.11000
H738        H  0.16650284  0.49184320  0.19782510     0.13000
C739        C  0.87742982  0.48804207  0.11164483     0.19100
C740        C  0.84976495  0.49995953  0.11296225    -0.19000
C741        C  0.83423382  0.49953928  0.13882660    -0.11300
C742        C  0.84592889  0.48656690  0.16379615     0.21300
C743        C  0.87361037  0.47463591  0.16247615    -0.20700
C744        C  0.88917009  0.47509247  0.13659980    -0.11500
C745        C  0.82969292  0.48477922  0.19136587    -0.15700
C746        C  0.80079373  0.48409162  0.19197026    -0.29500
C747        C  0.89343826  0.48967269  0.08398344    -0.03800
C748        C  0.92232451  0.49022680  0.08299968    -0.40300
H749        H  0.84035829  0.51011742  0.09405030     0.12500
H750        H  0.81331379  0.50979413  0.13918778     0.12100
H751        H  0.88298867  0.46443576  0.18137647     0.11500
H752        H  0.91010778  0.46486697  0.13619406     0.11800
H753        H  0.84174077  0.48207670  0.21137221     0.14500
H754        H  0.78858253  0.48490409  0.17194475     0.13300
H755        H  0.88113964  0.49215538  0.06410056     0.11000
H756        H  0.93481710  0.48941808  0.10285665     0.13000
C757        C  0.47897949  0.30450840  0.83671391     0.19100
C758        C  0.46626422  0.30253365  0.86437529    -0.19000
C759        C  0.47018082  0.32430277  0.88510308    -0.11300
C760        C  0.48702076  0.34888873  0.87875501     0.21300
C761        C  0.49985697  0.35082485  0.85111295    -0.20700
C762        C  0.49600288  0.32892699  0.83034660    -0.11500
C763        C  0.49062942  0.37355217  0.89956357    -0.15700
C764        C  0.48465872  0.37243897  0.92830012    -0.29500
C765        C  0.47243544  0.28113122  0.81529523    -0.03800
C766        C  0.48538310  0.27665765  0.78925529    -0.40300
H767        H  0.45282732  0.28411113  0.86994023     0.12500
H768        H  0.45930696  0.32197884  0.90569759     0.12100
H769        H  0.51277231  0.36956550  0.84542954     0.11500
H770        H  0.50585858  0.33157301  0.80926851     0.11800
H771        H  0.49916607  0.39361825  0.89070067     0.14500
H772        H  0.47755645  0.35233757  0.93813952     0.13300
H773        H  0.45566496  0.26607291  0.82203784     0.11000
H774        H  0.50295946  0.29041868  0.78200429     0.13000
C775        C  0.50848882  0.63175642  0.81783726     0.19100
C776        C  0.49265161  0.63108061  0.84381314    -0.19000
C777        C  0.49431201  0.60764173  0.86269571    -0.11300
C778        C  0.51202194  0.58393759  0.85636656     0.21300
C779        C  0.52711959  0.58379499  0.82985644    -0.20700
C780        C  0.52560867  0.60765752  0.81078421    -0.11500
C781        C  0.51449086  0.55965541  0.87762765    -0.15700
C782        C  0.51529262  0.56512493  0.90632333    -0.29500
C783        C  0.50744646  0.65920751  0.80077803    -0.03800
C784        C  0.51824190  0.66477806  0.77397983    -0.40300
H785        H  0.47911233  0.64913006  0.84989732     0.12500
H786        H  0.48164974  0.60815146  0.88241650     0.12100
H787        H  0.54073935  0.56564509  0.82434800     0.11500
H788        H  0.53827703  0.60745186  0.79109672     0.11800
H789        H  0.51559843  0.53756446  0.86977934     0.14500
H790        H  0.51629959  0.58753341  0.91335502     0.13300
H791        H  0.49685919  0.67683283  0.81204690     0.11000
H792        H  0.52801383  0.64781962  0.76112565     0.13000
C793        C  0.52879033  0.61498823  0.14162513     0.19100
C794        C  0.51580474  0.61695025  0.16910397    -0.19000
C795        C  0.51623526  0.64305804  0.18464056    -0.11300
C796        C  0.52998181  0.66769395  0.17303515     0.21300
C797        C  0.54397574  0.66530397  0.14617313    -0.20700
C798        C  0.54363826  0.63931209  0.13077386    -0.11500
C799        C  0.52829332  0.69683948  0.18664474    -0.15700
C800        C  0.52257675  0.70203545  0.21483206    -0.29500
C801        C  0.52616195  0.58763405  0.12456210    -0.03800
C802        C  0.52691381  0.58729531  0.09532864    -0.40300
H803        H  0.50443719  0.59851312  0.17813381     0.12500
H804        H  0.50486037  0.64411155  0.20507779     0.12100
H805        H  0.55493452  0.68382953  0.13680003     0.11500
H806        H  0.55497017  0.63849117  0.11030462     0.11800
H807        H  0.53216907  0.71517811  0.17238590     0.14500
H808        H  0.52042946  0.68428972  0.23008637     0.13300
H809        H  0.52199969  0.56762628  0.13622738     0.11000
H810        H  0.52940663  0.60749333  0.08358640     0.13000
C811        C  0.46189224  0.31188358  0.19236373     0.19100
C812        C  0.48666915  0.32965156  0.19262840    -0.19000
C813        C  0.49069654  0.35096207  0.17108119    -0.11300
C814        C  0.47006310  0.35469075  0.14891892     0.21300
C815        C  0.44475560  0.33803683  0.14986931    -0.20700
C816        C  0.44066727  0.31710115  0.17132608    -0.11500
C817        C  0.47498204  0.37347408  0.12299741    -0.15700
C818        C  0.49054152  0.39811571  0.12318931    -0.29500
C819        C  0.45923319  0.28472061  0.20967880    -0.03800
C820        C  0.47327300  0.27815286  0.23448251    -0.40300
H821        H  0.50369916  0.32592758  0.20820098     0.12500
H822        H  0.51064903  0.36320402  0.17081054     0.12100
H823        H  0.42843940  0.34051977  0.13326097     0.11500
H824        H  0.42137165  0.30381543  0.17053786     0.11800
H825        H  0.46405373  0.36733569  0.10308716     0.14500
H826        H  0.49974195  0.40576572  0.14341847     0.13300
H827        H  0.44539517  0.26815809  0.20028747     0.11000
H828        H  0.48573640  0.29442244  0.24594217     0.13000
C829        C  0.65057304  0.19631497  0.97907734     0.19100
C830        C  0.65882874  0.16800924  0.97195822    -0.19000
C831        C  0.63779269  0.14657745  0.96715647    -0.11300
C832        C  0.60810314  0.15306996  0.96951789     0.21300
C833        C  0.60011640  0.18175050  0.97491562    -0.20700
C834        C  0.62104411  0.20299061  0.97994500    -0.11500
C835        C  0.58483915  0.13066062  0.96753411    -0.15700
C836        C  0.58939274  0.10250716  0.97317334    -0.29500
C837        C  0.67138260  0.21851013  0.98952557    -0.03800
C838        C  0.69979648  0.22027161  0.98292077    -0.40300
H839        H  0.68138907  0.16208525  0.97139106     0.12500
H840        H  0.64496083  0.12497062  0.96201554     0.12100
H841        H  0.57754313  0.18753234  0.97649840     0.11500
H842        H  0.61407785  0.22463671  0.98543477     0.11800
H843        H  0.56298745  0.13781360  0.96303863     0.14500
H844        H  0.61096447  0.09520512  0.97845339     0.13300
H845        H  0.66236746  0.23465039  0.00402151     0.11000
H846        H  0.70929400  0.20617053  0.96678009     0.13000
C847        C  0.35839305  0.87433379  0.98171495     0.19100
C848        C  0.33093369  0.87234933  0.96887560    -0.19000
C849        C  0.31304018  0.84820973  0.97399773    -0.11300
C850        C  0.32220090  0.82585510  0.99254744     0.21300
C851        C  0.34916894  0.82862387  0.00620212    -0.20700
C852        C  0.36700538  0.85241289  0.00088725    -0.11500
C853        C  0.30583699  0.79842951  0.99753076    -0.15700
C854        C  0.28140390  0.78970489  0.98397424    -0.29500
C855        C  0.37749128  0.89972059  0.97583274    -0.03800
C856        C  0.40652765  0.89753341  0.97583473    -0.40300
H857        H  0.32357713  0.88922058  0.95439717     0.12500
H858        H  0.29237375  0.84711038  0.96322021     0.12100
H859        H  0.35680877  0.81197922  0.02081390     0.11500
H860        H  0.38747499  0.85367841  0.01209413     0.11800
H861        H  0.31607179  0.78329640  0.01229605     0.14500
H862        H  0.26975416  0.80407381  0.96962454     0.13300
H863        H  0.36749170  0.92042797  0.97124493     0.11000
H864        H  0.41634383  0.87640685  0.97842855     0.13000
C865        C  0.62263532  0.86420701  0.95383254     0.19100
C866        C  0.61816603  0.84007149  0.93610000    -0.19000
C867        C  0.63979241  0.81955938  0.93216528    -0.11300
C868        C  0.66658470  0.82208386  0.94623270     0.21300
C869        C  0.67153153  0.84652865  0.96376423    -0.20700
C870        C  0.64976801  0.86748861  0.96743385    -0.11500
C871        C  0.68690833  0.79719517  0.94328914    -0.15700
C872        C  0.71248943  0.79313185  0.95692707    -0.29500
C873        C  0.59786006  0.88442025  0.95810529    -0.03800
C874        C  0.60059555  0.91249482  0.96528988    -0.40300
H875        H  0.59764016  0.83689599  0.92531695     0.12500
H876        H  0.63512904  0.80104431  0.91856840     0.12100
H877        H  0.69176005  0.84923973  0.97511542     0.11500
H878        H  0.65393055  0.88561735  0.98163151     0.11800
H879        H  0.67886311  0.77951370  0.93002272     0.14500
H880        H  0.72248263  0.81023680  0.96949592     0.13300
H881        H  0.57640504  0.87613541  0.95332699     0.11000
H882        H  0.62197216  0.92161988  0.96848558     0.13000
C883        C  0.36528636  0.13644908  0.97332856     0.19100
C884        C  0.36291827  0.16227245  0.95738275    -0.19000
C885        C  0.33867103  0.18019677  0.96048453    -0.11300
C886        C  0.31654296  0.17289516  0.98008216     0.21300
C887        C  0.31871810  0.14693905  0.99568167    -0.20700
C888        C  0.34260844  0.12884510  0.99226139    -0.11500
C889        C  0.29464809  0.19441235  0.98935270    -0.15700
C890        C  0.28207922  0.21431548  0.97207128    -0.29500
C891        C  0.39209485  0.11858101  0.97113459    -0.03800
C892        C  0.39175627  0.08977284  0.97550013    -0.40300
H893        H  0.38013566  0.16886094  0.94289763     0.12500
H894        H  0.33809734  0.20056382  0.94891043     0.12100
H895        H  0.30237302  0.14120440  0.01149918     0.11500
H896        H  0.34384833  0.10965576  0.00562225     0.11800
H897        H  0.29053770  0.19544073  0.01253376     0.14500
H898        H  0.28395844  0.21292524  0.94867187     0.13300
H899        H  0.41219363  0.12916838  0.96510099     0.11000
H900        H  0.37118740  0.07908795  0.97929271     0.13000
C901        C  0.41367290  0.17092307  0.82412407     0.19100
C902        C  0.42780238  0.17512694  0.85059984    -0.19000
C903        C  0.43793254  0.15150040  0.86619035    -0.11300
C904        C  0.43387057  0.12331151  0.85552538     0.21300
C905        C  0.41626840  0.11899583  0.83123578    -0.20700
C906        C  0.40625528  0.14271774  0.81547407    -0.11500
C907        C  0.44810063  0.09829857  0.86920052    -0.15700
C908        C  0.47360313  0.10079403  0.88275530    -0.29500
C909        C  0.41355581  0.19537122  0.80361433    -0.03800
C910        C  0.42415873  0.19131910  0.77684373    -0.40300
H911        H  0.43337414  0.19670361  0.85789547     0.12500
H912        H  0.44988862  0.15545111  0.88593103     0.12100
H913        H  0.41192046  0.09735623  0.82337096     0.11500
H914        H  0.39461031  0.13901055  0.79548938     0.11800
H915        H  0.43709770  0.07748330  0.86868487     0.14500
H916        H  0.48481776  0.12142006  0.88373329     0.13300
H917        H  0.41452737  0.21690949  0.81299103     0.11000
H918        H  0.42397049  0.16981899  0.76739184     0.13000
C919        C  0.49733670  0.81816196  0.80793901     0.19100
C920        C  0.51159960  0.84462786  0.80407817    -0.19000
C921        C  0.50987451  0.86600964  0.82522389    -0.11300
C922        C  0.49330726  0.86141138  0.85038760     0.21300
C923        C  0.47810805  0.83535868  0.85366625    -0.20700
C924        C  0.47991251  0.81393349  0.83253191    -0.11500
C925        C  0.49282488  0.88257925  0.87429282    -0.15700
C926        C  0.49756026  0.91090367  0.87010377    -0.29500
C927        C  0.50203786  0.79509955  0.78647556    -0.03800
C928        C  0.50217607  0.76699484  0.79379733    -0.40300
H929        H  0.52509141  0.84829668  0.78523252     0.12500
H930        H  0.52247454  0.88552443  0.82224766     0.12100
H931        H  0.46506289  0.83146717  0.87277681     0.11500
H932        H  0.46788184  0.79406196  0.83562019     0.11800
H933        H  0.48787393  0.87463014  0.89591771     0.14500
H934        H  0.50036660  0.91946801  0.84837863     0.13300
H935        H  0.50794082  0.80158015  0.76460604     0.11000
H936        H  0.49788008  0.76031956  0.81594511     0.13000
C937        C  0.50227758  0.83020387  0.14951399     0.19100
C938        C  0.48680306  0.82749729  0.12355552    -0.19000
C939        C  0.48404235  0.85108391  0.10478164    -0.11300
C940        C  0.49704778  0.87779496  0.11153463     0.21300
C941        C  0.51186692  0.88072816  0.13778565    -0.20700
C942        C  0.51478955  0.85714424  0.15644987    -0.11500
C943        C  0.49623889  0.90273782  0.09136639    -0.15700
C944        C  0.49673537  0.89925158  0.06249730    -0.29500
C945        C  0.50568611  0.80445807  0.16849415    -0.03800
C946        C  0.50997883  0.80680054  0.19715004    -0.40300
H947        H  0.47682118  0.80707726  0.11780166     0.12500
H948        H  0.47173653  0.84836345  0.08504866     0.12100
H949        H  0.52207165  0.90107972  0.14340519     0.11500
H950        H  0.52758623  0.85998668  0.17582070     0.11800
H951        H  0.49751241  0.92436843  0.10045791     0.14500
H952        H  0.49723405  0.87760584  0.05341237     0.13300
H953        H  0.50362121  0.78313461  0.15883264     0.11000
H954        H  0.51010537  0.82796875  0.20725538     0.13000
C955        C  0.47595108  0.15550019  0.16258734     0.19100
C956        C  0.48960012  0.16223034  0.13633949    -0.19000
C957        C  0.49492744  0.14077948  0.11590277    -0.11300
C958        C  0.48606225  0.11207746  0.12101200     0.21300
C959        C  0.47243130  0.10524786  0.14727590    -0.20700
C960        C  0.46719781  0.12675238  0.16784550    -0.11500
C961        C  0.49035057  0.08897876  0.09923841    -0.15700
C962        C  0.49197845  0.09480197  0.07079910    -0.29500
C963        C  0.47210348  0.17905106  0.18396873    -0.03800
C964        C  0.46918301  0.17434546  0.21251398    -0.40300
H965        H  0.49674116  0.18412320  0.13185154     0.12500
H966        H  0.50641157  0.14681294  0.09639850     0.12100
H967        H  0.46537238  0.08331058  0.15167049     0.11500
H968        H  0.45600462  0.12074408  0.18751902     0.11800
H969        H  0.49025622  0.06663725  0.10657338     0.14500
H970        H  0.49022800  0.11690588  0.06312282     0.13300
H971        H  0.47450898  0.20114125  0.17622218     0.11000
H972        H  0.46852735  0.15250194  0.22104970     0.13000
C973        C  0.35504115  0.00627712  0.09423479     0.19100
C974        C  0.32907715  0.99084918  0.09764090    -0.19000
C975        C  0.31241573  0.99404127  0.12290083    -0.11300
C976        C  0.32131501  0.01321931  0.14485444     0.21300
C977        C  0.34627026  0.02998483  0.14031957    -0.20700
C978        C  0.36292056  0.02659073  0.11540988    -0.11500
C979        C  0.30804845  0.01421308  0.17421824    -0.15700
C980        C  0.28381435  0.00050616  0.18318235    -0.29500
C981        C  0.37416624  0.00077360  0.06896776    -0.03800
C982        C  0.40305340  0.00058541  0.07202777    -0.40300
H983        H  0.32240174  0.97535453  0.08137645     0.12500
H984        H  0.29341908  0.98065912  0.12559672     0.12100
H985        H  0.35360040  0.04509570  0.15668521     0.11500
H986        H  0.38227446  0.03957888  0.11297030     0.11800
H987        H  0.32057449  0.02572779  0.19049120     0.14500
H988        H  0.26920388  0.99015959  0.16803052     0.13300
H989        H  0.36449040  0.99621237  0.04803589     0.11000
H990        H  0.41224799  0.00333625  0.09351107     0.13000
C991        C  0.68324591  0.01663679  0.80991014     0.19100
C992        C  0.65527416  0.02720788  0.80522131    -0.19000
C993        C  0.63494891  0.02777635  0.82756507    -0.11300
C994        C  0.64193842  0.01735804  0.85530216     0.21300
C995        C  0.67048059  0.00843130  0.86054667    -0.20700
C996        C  0.69095847  0.00790703  0.83805338    -0.11500
C997        C  0.61994558  0.01521490  0.87892868    -0.15700
C998        C  0.59124213  0.01319141  0.87391659    -0.29500
C999        C  0.70123972  0.01042166  0.78395137    -0.03800
C1000       C  0.72968341  0.00412967  0.78348627    -0.40300
H1001       H  0.64872252  0.03410215  0.78377779     0.12500
H1002       H  0.61369700  0.03604806  0.82277809     0.12100
H1003       H  0.67661330  0.00066821  0.88180860     0.11500
H1004       H  0.71215475  0.99921040  0.84240207     0.11800
H1005       H  0.62776483  0.01395622  0.90107836     0.14500
H1006       H  0.58319180  0.01302009  0.85187125     0.13300
H1007       H  0.68934608  0.00806722  0.76375458     0.11000
H1008       H  0.74338608  0.00759767  0.80221282     0.13000
C1009       C  0.30855787  0.98616013  0.80872094     0.19100
C1010       C  0.33401068  0.96981620  0.81095096    -0.19000
C1011       C  0.35346680  0.97404684  0.83363214    -0.11300
C1012       C  0.34814218  0.99477567  0.85513749     0.21300
C1013       C  0.32222104  0.01059884  0.85368422    -0.20700
C1014       C  0.30270923  0.00661245  0.83050064    -0.11500
C1015       C  0.36915496  0.99926192  0.87941341    -0.15700
C1016       C  0.39796022  0.99640535  0.87557994    -0.29500
C1017       C  0.28968226  0.98037831  0.78302028    -0.03800
C1018       C  0.26768293  0.99661594  0.77236104    -0.40300
H1019       H  0.33913396  0.95366259  0.79478456     0.12500
H1020       H  0.37256623  0.96068187  0.83445485     0.12100
H1021       H  0.31731449  0.02639882  0.87024424     0.11500
H1022       H  0.28319831  0.01934353  0.82979414     0.11800
H1023       H  0.36086250  0.00546609  0.90051405     0.14500
H1024       H  0.40615764  0.99240742  0.85390859     0.13300
H1025       H  0.29600124  0.96146929  0.77065019     0.11000
H1026       H  0.26007148  0.01552297  0.78389955     0.13000
C1027       C  0.49979686  0.12821389  0.39708634     0.19100
C1028       C  0.47962661  0.15073605  0.39484981    -0.19000
C1029       C  0.47853275  0.16805891  0.36979351    -0.11300
C1030       C  0.49784213  0.16316942  0.34679625     0.21300
C1031       C  0.51878867  0.14157888  0.34977425    -0.20700
C1032       C  0.51999045  0.12453665  0.37467144    -0.11500
C1033       C  0.49452320  0.17680229  0.31788170    -0.15700
C1034       C  0.48424148  0.20356618  0.31243236    -0.29500
C1035       C  0.49906684  0.10784676  0.42212154    -0.03800
C1036       C  0.50411983  0.07947377  0.41815938    -0.40300
H1037       H  0.46391197  0.15405220  0.41188912     0.12500
H1038       H  0.46176143  0.18415788  0.36783344     0.12100
H1039       H  0.53387917  0.13735091  0.33235827     0.11500
H1040       H  0.53641412  0.10801334  0.37607713     0.11800
H1041       H  0.50113784  0.16348144  0.29966895     0.14500
H1042       H  0.47949193  0.21836871  0.33000743     0.13300
H1043       H  0.49305553  0.11584343  0.44339121     0.11000
H1044       H  0.50769557  0.07158658  0.39628271     0.13000
C1045       C  0.52916257  0.81214177  0.33285047     0.19100
C1046       C  0.54120447  0.83988938  0.33562309    -0.19000
C1047       C  0.53830665  0.85542960  0.36120203    -0.11300
C1048       C  0.52302532  0.84369208  0.38473068     0.21300
C1049       C  0.51281108  0.81511050  0.38295343    -0.20700
C1050       C  0.51560743  0.79942951  0.35706105    -0.11500
C1051       C  0.51724087  0.86148509  0.41078378    -0.15700
C1052       C  0.51204918  0.89000269  0.40836728    -0.29500
C1053       C  0.52911956  0.79928241  0.30342186    -0.03800
C1054       C  0.52043460  0.77243118  0.29592285    -0.40300
H1055       H  0.55214772  0.85009157  0.31751737     0.12500
H1056       H  0.54762217  0.87691193  0.36231514     0.12100
H1057       H  0.50149290  0.80545188  0.40110635     0.11500
H1058       H  0.50616226  0.77805584  0.35580052     0.11800
H1059       H  0.51697312  0.85108637  0.43189785     0.14500
H1060       H  0.51083146  0.89979129  0.38698751     0.13300
H1061       H  0.53612373  0.81377240  0.28619538     0.11000
H1062       H  0.51487233  0.75630876  0.31208633     0.13000
C1063       C  0.51843777  0.12054870  0.63483617     0.19100
C1064       C  0.50761649  0.14855244  0.62999840    -0.19000
C1065       C  0.50530082  0.16850178  0.65280393    -0.11300
C1066       C  0.51390869  0.16080439  0.68095187     0.21300
C1067       C  0.52618178  0.13344389  0.68541135    -0.20700
C1068       C  0.52869420  0.11364227  0.66267056    -0.11500
C1069       C  0.50550944  0.17795903  0.70683692    -0.15700
C1070       C  0.50114458  0.20682712  0.70780351    -0.29500
C1071       C  0.51816805  0.09915107  0.61056163    -0.03800
C1072       C  0.51917400  0.07015673  0.61434340    -0.40300
H1073       H  0.49979304  0.15461494  0.60874357     0.12500
H1074       H  0.49520395  0.18917118  0.64872926     0.12100
H1075       H  0.53294382  0.12695043  0.70691205     0.11500
H1076       H  0.53823258  0.09284792  0.66724693     0.11800
H1077       H  0.50057664  0.16539594  0.72618179     0.14500
H1078       H  0.50758045  0.22079780  0.69000691     0.13300
H1079       H  0.51548426  0.10763335  0.58877115     0.11000
H1080       H  0.52059762  0.06111177  0.63597218     0.13000
C1081       C  0.53945901  0.78504652  0.66441430     0.19100
C1082       C  0.55411408  0.81172877  0.66427893    -0.19000
C1083       C  0.54973511  0.83189531  0.64217268    -0.11300
C1084       C  0.53034464  0.82604354  0.61952067     0.21300
C1085       C  0.51714953  0.79858053  0.61845772    -0.20700
C1086       C  0.52145253  0.77829468  0.64081356    -0.11500
C1087       C  0.52373069  0.84833248  0.59701016    -0.15700
C1088       C  0.52387242  0.87696250  0.60293857    -0.29500
C1089       C  0.54019765  0.76774948  0.69171279    -0.03800
C1090       C  0.53055705  0.74031759  0.69581541    -0.40300
H1091       H  0.56826358  0.81752848  0.68204045     0.12500
H1092       H  0.56129954  0.85225450  0.64313150     0.12100
H1093       H  0.50248451  0.79330689  0.60097342     0.11500
H1094       H  0.50957746  0.75811567  0.64027542     0.11800
H1095       H  0.51785620  0.84100414  0.57544929     0.14500
H1096       H  0.52791182  0.88408839  0.62497485     0.13300
H1097       H  0.54728794  0.77969976  0.71072648     0.11000
H1098       H  0.52504635  0.72649273  0.67766642     0.13000
C1099       C  0.34685989  0.98064810  0.32836698     0.19100
C1100       C  0.34113757  0.96911623  0.35590881    -0.19000
C1101       C  0.36273704  0.96763165  0.37681669    -0.11300
C1102       C  0.39061650  0.97796150  0.37067189     0.21300
C1103       C  0.39677253  0.98838241  0.34277728    -0.20700
C1104       C  0.37510872  0.98992828  0.32180330    -0.11500
C1105       C  0.41376522  0.97822859  0.39271826    -0.15700
C1106       C  0.40866769  0.97882975  0.42144948    -0.29500
C1107       C  0.32230682  0.98337368  0.30797720    -0.03800
C1108       C  0.32460465  0.99084718  0.27992366    -0.40300
H1109       H  0.31970406  0.96143977  0.36142354     0.12500
H1110       H  0.35742904  0.95832596  0.39765954     0.12100
H1111       H  0.41823863  0.99610457  0.33744142     0.11500
H1112       H  0.38062585  0.99903204  0.30095831     0.11800
H1113       H  0.43586249  0.97927355  0.38486491     0.14500
H1114       H  0.38677913  0.97897543  0.42977678     0.13300
H1115       H  0.30098767  0.97863764  0.31665115     0.11000
H1116       H  0.34543713  0.99466106  0.26994081     0.13000
C1117       C  0.63788412  0.93129568  0.63176177     0.19100
C1118       C  0.63412826  0.92053070  0.65987072    -0.19000
C1119       C  0.65811231  0.91426473  0.67699918    -0.11300
C1120       C  0.68616721  0.91877130  0.66605769     0.21300
C1121       C  0.68967769  0.92624524  0.63684383    -0.20700
C1122       C  0.66575733  0.93246027  0.61977984    -0.11500
C1123       C  0.71175739  0.92121988  0.68502375    -0.15700
C1124       C  0.70932145  0.93117985  0.71218634    -0.29500
C1125       C  0.61258525  0.94187047  0.61565408    -0.03800
C1126       C  0.61469316  0.96347827  0.59633513    -0.40300
H1127       H  0.61271245  0.91850819  0.66910566     0.12500
H1128       H  0.65456566  0.90728053  0.69908919     0.12100
H1129       H  0.71102844  0.92934803  0.62773988     0.11500
H1130       H  0.66924598  0.93908917  0.59755381     0.11800
H1131       H  0.73269291  0.92237279  0.67442768     0.14500
H1132       H  0.68861362  0.93085124  0.72314258     0.13300
H1133       H  0.59171021  0.93193518  0.62000122     0.11000
H1134       H  0.63534248  0.97364620  0.59170143     0.13000
C1135       C  0.33001994  0.93101856  0.66750431     0.19100
C1136       C  0.35840880  0.93369301  0.67768269    -0.19000
C1137       C  0.38129434  0.93676992  0.65823559    -0.11300
C1138       C  0.37599044  0.93728710  0.62824668     0.21300
C1139       C  0.34811023  0.93119711  0.61816756    -0.20700
C1140       C  0.32533373  0.92770963  0.63757674    -0.11500
C1141       C  0.39835250  0.94508824  0.60671700    -0.15700
C1142       C  0.42296598  0.95923925  0.61311529    -0.29500
C1143       C  0.30613048  0.93658962  0.68806956    -0.03800
C1144       C  0.28103329  0.94811844  0.67928021    -0.40300
H1145       H  0.36269819  0.93547923  0.70068155     0.12500
H1146       H  0.40275663  0.93977483  0.66688179     0.12100
H1147       H  0.34360745  0.93070261  0.59516009     0.11500
H1148       H  0.30400520  0.92393081  0.62887160     0.11800
H1149       H  0.39364925  0.94009455  0.58418340     0.14500
H1150       H  0.42869056  0.96448703  0.63525502     0.13300
H1151       H  0.31124072  0.93651487  0.71105242     0.11000
H1152       H  0.27566045  0.94929848  0.65647338     0.13000
C1153       C  0.64342869  0.99546908  0.08780097     0.19100
C1154       C  0.66862538  0.01216130  0.09151033    -0.19000
C1155       C  0.68771969  0.00639703  0.11452540    -0.11300
C1156       C  0.68205901  0.98340294  0.13379483     0.21300
C1157       C  0.65787218  0.96574558  0.12870662    -0.20700
C1158       C  0.63883048  0.97166714  0.10615776    -0.11500
C1159       C  0.69782951  0.97865163  0.16148931    -0.15700
C1160       C  0.72139410  0.99292982  0.17120442    -0.29500
C1161       C  0.62217808  0.00248613  0.06459903    -0.03800
C1162       C  0.59360564  0.99822210  0.06852631    -0.40300
H1163       H  0.67294192  0.03030777  0.07727650     0.12500
H1164       H  0.70610228  0.02051549  0.11770433     0.12100
H1165       H  0.65302585  0.94771777  0.14294674     0.11500
H1166       H  0.62033375  0.95759589  0.10325601     0.11800
H1167       H  0.68754370  0.96350150  0.17635073     0.14500
H1168       H  0.73392772  0.00703924  0.15720285     0.13300
H1169       H  0.63007381  0.01125479  0.04422862     0.11000
H1170       H  0.58583603  0.99150415  0.08972042     0.13000
C1171       C  0.66291676  0.97844054  0.31828980     0.19100
C1172       C  0.66623848  0.96352243  0.34449725    -0.19000
C1173       C  0.64381060  0.96263581  0.36465321    -0.11300
C1174       C  0.61777031  0.97716197  0.35914488     0.21300
C1175       C  0.61403196  0.99123711  0.33254240    -0.20700
C1176       C  0.63649177  0.99213321  0.31234180    -0.11500
C1177       C  0.59470724  0.97870741  0.38126463    -0.15700
C1178       C  0.60110241  0.98092562  0.40952712    -0.29500
C1179       C  0.68788531  0.98060122  0.29838975    -0.03800
C1180       C  0.68496236  0.98383750  0.26964241    -0.40300
H1181       H  0.68631519  0.95267225  0.34945219     0.12500
H1182       H  0.64697045  0.95078352  0.38463282     0.12100
H1183       H  0.59412086  0.00250142  0.32787406     0.11500
H1184       H  0.63341507  0.00440492  0.29262616     0.11800
H1185       H  0.57238277  0.97952727  0.37414955     0.14500
H1186       H  0.62354482  0.98166831  0.41629271     0.13300
H1187       H  0.70934279  0.97885470  0.30770771     0.11000
H1188       H  0.66367391  0.98377023  0.25986062     0.13000
C1189       C  0.36744320  0.86161017  0.53443925     0.19100
C1190       C  0.34461489  0.86821175  0.55312185    -0.19000
C1191       C  0.32250860  0.84833549  0.55813678    -0.11300
C1192       C  0.32227785  0.82128470  0.54433708     0.21300
C1193       C  0.34532619  0.81426198  0.52578000    -0.20700
C1194       C  0.36778791  0.83425604  0.52093254    -0.11500
C1195       C  0.29608842  0.80296400  0.54836164    -0.15700
C1196       C  0.29075888  0.77666037  0.53672439    -0.29500
C1197       C  0.38944574  0.88453165  0.52893052    -0.03800
C1198       C  0.41641872  0.87944779  0.51952438    -0.40300
H1199       H  0.34368884  0.88904512  0.56371306     0.12500
H1200       H  0.30501600  0.85454169  0.57239390     0.12100
H1201       H  0.34576568  0.79384974  0.51441024     0.11500
H1202       H  0.38474425  0.82857779  0.50589962     0.11800
H1203       H  0.27891563  0.81294827  0.56085905     0.14500
H1204       H  0.30731343  0.76477354  0.52524904     0.13300
H1205       H  0.38348969  0.90660041  0.53429175     0.11000
H1206       H  0.42346951  0.85742957  0.51574095     0.13000
C1207       C  0.62439566  0.83437300  0.48796059     0.19100
C1208       C  0.62746884  0.80889280  0.50427376    -0.19000
C1209       C  0.64862530  0.78848462  0.49700867    -0.11300
C1210       C  0.66650619  0.79301831  0.47276592     0.21300
C1211       C  0.66246875  0.81805083  0.45592891    -0.20700
C1212       C  0.64181682  0.83852337  0.46345542    -0.11500
C1213       C  0.69105525  0.77398892  0.46480632    -0.15700
C1214       C  0.70271482  0.75263465  0.48106682    -0.29500
C1215       C  0.60234522  0.85602823  0.49608593    -0.03800
C1216       C  0.60697136  0.88468765  0.49317525    -0.40300
H1217       H  0.61392443  0.80512941  0.52304909     0.12500
H1218       H  0.65097361  0.76949728  0.51046604     0.12100
H1219       H  0.67584181  0.82218560  0.43709349     0.11500
H1220       H  0.63936220  0.85750919  0.44993438     0.11800
H1221       H  0.70258501  0.78045433  0.44529339     0.14500
H1222       H  0.69193920  0.74425309  0.50018089     0.13300
H1223       H  0.58211305  0.84819656  0.50512984     0.11000
H1224       H  0.62795582  0.89254228  0.48610227     0.13000
C1225       C  0.63095070  0.12366334  0.50391645     0.19100
C1226       C  0.63145557  0.15231119  0.51413851    -0.19000
C1227       C  0.65497171  0.17071179  0.50799876    -0.11300
C1228       C  0.67827837  0.16074320  0.49120228     0.21300
C1229       C  0.67760326  0.13212733  0.48111236    -0.20700
C1230       C  0.65434223  0.11394257  0.48717088    -0.11500
C1231       C  0.70350332  0.17886974  0.48244179    -0.15700
C1232       C  0.70999460  0.20595090  0.49151029    -0.29500
C1233       C  0.60541321  0.10455839  0.50934863    -0.03800
C1234       C  0.60797485  0.07556076  0.51010607    -0.40300
H1235       H  0.61359306  0.16047134  0.52681695     0.12500
H1236       H  0.65452201  0.19265340  0.51601112     0.12100
H1237       H  0.69505238  0.12379315  0.46794271     0.11500
H1238       H  0.65448078  0.09251563  0.47781307     0.11800
H1239       H  0.71832193  0.16847380  0.46751304     0.14500
H1240       H  0.69638972  0.21705102  0.50699062     0.13300
H1241       H  0.58435468  0.11439355  0.51214379     0.11000
H1242       H  0.62933977  0.06608864  0.50904672     0.13000
C1243       C  0.38893159  0.12260972  0.52849551     0.19100
C1244       C  0.39113631  0.15112609  0.51777136    -0.19000
C1245       C  0.36736100  0.17008558  0.51859675    -0.11300
C1246       C  0.34086008  0.16092817  0.53041301     0.21300
C1247       C  0.33922412  0.13301023  0.54245768    -0.20700
C1248       C  0.36283646  0.11423022  0.54174782    -0.11500
C1249       C  0.31328190  0.17731076  0.52686711    -0.15700
C1250       C  0.30980447  0.20613922  0.52233999    -0.29500
C1251       C  0.41396524  0.10217772  0.52550670    -0.03800
C1252       C  0.41106704  0.07300195  0.52581254    -0.40300
H1253       H  0.41102252  0.15843034  0.50777078     0.12500
H1254       H  0.36935547  0.19125479  0.50876201     0.12100
H1255       H  0.31916682  0.12530355  0.55182395     0.11500
H1256       H  0.36031846  0.09307660  0.55144143     0.11800
H1257       H  0.29396250  0.16388596  0.52709769     0.14500
H1258       H  0.32793307  0.22096759  0.52399109     0.13300
H1259       H  0.43520384  0.11145137  0.52167833     0.11000
H1260       H  0.38972806  0.06353201  0.52798538     0.13000
C1261       C  0.82609808  0.98292917  0.65357438     0.19100
C1262       C  0.82698059  0.96713326  0.62754731    -0.19000
C1263       C  0.84881090  0.97178992  0.60710672    -0.11300
C1264       C  0.87046780  0.99258174  0.61203567     0.21300
C1265       C  0.86979067  0.00831227  0.63808308    -0.20700
C1266       C  0.84778228  0.00373611  0.65857677    -0.11500
C1267       C  0.89460739  0.99736683  0.59106141    -0.15700
C1268       C  0.89212776  0.99236040  0.56235885    -0.29500
C1269       C  0.80229406  0.97626944  0.67449319    -0.03800
C1270       C  0.79752817  0.98902093  0.70051766    -0.40300
H1271       H  0.81077676  0.95079184  0.62304715     0.12500
H1272       H  0.84897523  0.95853039  0.58781858     0.12100
H1273       H  0.88633161  0.02430552  0.64254990     0.11500
H1274       H  0.84808128  0.01638678  0.67822982     0.11800
H1275       H  0.91482992  0.00582414  0.59948694     0.14500
H1276       H  0.87150667  0.98549184  0.55355221     0.13300
H1277       H  0.78742496  0.95940721  0.66760726     0.11000
H1278       H  0.81147332  0.00619752  0.70826858     0.13000
C1279       C  0.17593202  0.02248922  0.63889373     0.19100
C1280       C  0.14653870  0.01982146  0.64612179    -0.19000
C1281       C  0.12510831  0.02219979  0.62454103    -0.11300
C1282       C  0.13265345  0.02732488  0.59525722     0.21300
C1283       C  0.16197564  0.03097649  0.58854059    -0.20700
C1284       C  0.18318361  0.02860845  0.60992799    -0.11500
C1285       C  0.11146000  0.02699601  0.57060705    -0.15700
C1286       C  0.08246480  0.02685027  0.57346663    -0.29500
C1287       C  0.20005360  0.01508228  0.65909684    -0.03800
C1288       C  0.19920053  0.01215300  0.68839224    -0.40300
H1289       H  0.14011940  0.01454293  0.66804590     0.12500
H1290       H  0.10290184  0.01881645  0.63085110     0.12100
H1291       H  0.16867227  0.03488461  0.56637746     0.11500
H1292       H  0.20560369  0.03057150  0.60351194     0.11800
H1293       H  0.12037412  0.02609727  0.54883957     0.14500
H1294       H  0.07287004  0.02822643  0.59483270     0.13300
H1295       H  0.22037321  0.01025968  0.64836966     0.11000
H1296       H  0.18036026  0.01851060  0.70075822     0.13000
C1297       C  0.14505916  0.00802158  0.35788964     0.19100
C1298       C  0.17248318  0.01868259  0.36496718    -0.19000
C1299       C  0.19524914  0.01719569  0.34524588    -0.11300
C1300       C  0.19151745  0.00503489  0.31761657     0.21300
C1301       C  0.16394814  0.99477877  0.30991856    -0.20700
C1302       C  0.14092248  0.99619189  0.32988780    -0.11500
C1303       C  0.21784254  0.00204263  0.29918882    -0.15700
C1304       C  0.21932238  0.99654716  0.27036936    -0.29500
C1305       C  0.12227019  0.00889928  0.38099534    -0.03800
C1306       C  0.09408513  0.00366017  0.37644059    -0.40300
H1307       H  0.17651043  0.02793144  0.38613992     0.12500
H1308       H  0.21618429  0.02529332  0.35190723     0.12100
H1309       H  0.16032421  0.98489662  0.28899530     0.11500
H1310       H  0.12033927  0.98726103  0.32343789     0.11800
H1311       H  0.23799800  0.00551396  0.31069835     0.14500
H1312       H  0.19987625  0.99432150  0.25748779     0.13300
H1313       H  0.12907026  0.01447526  0.40282047     0.11000
H1314       H  0.08657275  0.99884239  0.35474303     0.13000
C1315       C  0.85900857  0.00180617  0.34557991     0.19100
C1316       C  0.83803374  0.02345178  0.34747178    -0.19000
C1317       C  0.81737677  0.02668540  0.32576254    -0.11300
C1318       C  0.81699446  0.00828035  0.30161077     0.21300
C1319       C  0.83863576  0.98719816  0.29898591    -0.20700
C1320       C  0.85950035  0.98398056  0.32082363    -0.11500
C1321       C  0.79106138  0.00895305  0.28273207    -0.15700
C1322       C  0.78883353  0.99810441  0.25567788    -0.29500
C1323       C  0.87892295  0.99789621  0.37053887    -0.03800
C1324       C  0.90563067  0.98690919  0.36821332    -0.40300
H1325       H  0.83723226  0.03757410  0.36616949     0.12500
H1326       H  0.80087323  0.04299520  0.32842359     0.12100
H1327       H  0.83855062  0.97220081  0.28101426     0.11500
H1328       H  0.87506623  0.96672594  0.31888340     0.11800
H1329       H  0.77181654  0.01808888  0.29257432     0.14500
H1330       H  0.80770546  0.99070938  0.24394451     0.13300
H1331       H  0.87210828  0.00654985  0.39133277     0.11000
H1332       H  0.91381220  0.98047097  0.34715731     0.13000
C1333       C  0.12619820  0.88243960  0.51435620     0.19100
C1334       C  0.11882678  0.85808398  0.53096856    -0.19000
C1335       C  0.14015051  0.83995532  0.54186825    -0.11300
C1336       C  0.16934386  0.84569185  0.53597266     0.21300
C1337       C  0.17687811  0.87091659  0.52082246    -0.20700
C1338       C  0.15551650  0.88907082  0.50982747    -0.11500
C1339       C  0.19220697  0.82464042  0.54286338    -0.15700
C1340       C  0.18736458  0.79597283  0.54204887    -0.29500
C1341       C  0.10244963  0.89976089  0.50198274    -0.03800
C1342       C  0.10521947  0.92725118  0.49288777    -0.40300
H1343       H  0.09641181  0.85282282  0.53521817     0.12500
H1344       H  0.13368561  0.82120887  0.55437812     0.12100
H1345       H  0.19930031  0.87578391  0.51617579     0.11500
H1346       H  0.16215412  0.90748160  0.49697322     0.11800
H1347       H  0.21420293  0.83272338  0.54445995     0.14500
H1348       H  0.16569984  0.78756953  0.53884241     0.13300
H1349       H  0.08112102  0.88989182  0.50230655     0.11000
H1350       H  0.12594990  0.93818633  0.49339573     0.13000
C1351       C  0.84219949  0.81210658  0.44923779     0.19100
C1352       C  0.87233236  0.81003441  0.45053325    -0.19000
C1353       C  0.88937425  0.83490605  0.45190406    -0.11300
C1354       C  0.87643415  0.86235018  0.45235121     0.21300
C1355       C  0.84650108  0.86452280  0.44939849    -0.20700
C1356       C  0.82944285  0.83970224  0.44813934    -0.11500
C1357       C  0.89333617  0.88912489  0.45635675    -0.15700
C1358       C  0.91844379  0.88973824  0.47078939    -0.29500
C1359       C  0.82492149  0.78530979  0.45250748    -0.03800
C1360       C  0.79639266  0.78408690  0.44779768    -0.40300
H1361       H  0.88268389  0.78908459  0.45127115     0.12500
H1362       H  0.91255665  0.83249927  0.45291485     0.12100
H1363       H  0.83615797  0.88549300  0.44938597     0.11500
H1364       H  0.80634099  0.84255750  0.44776866     0.11800
H1365       H  0.88430237  0.90912724  0.44800480     0.14500
H1366       H  0.92755723  0.87009829  0.47976027     0.13300
H1367       H  0.83577997  0.76651338  0.46144259     0.11000
H1368       H  0.78502120  0.80217606  0.43828885     0.13000
C1369       C  0.81371913  0.15439634  0.41452163     0.19100
C1370       C  0.80804145  0.12516257  0.42028892    -0.19000
C1371       C  0.83061834  0.10536435  0.42149680    -0.11300
C1372       C  0.85920595  0.11468979  0.41695549     0.21300
C1373       C  0.86425346  0.14294369  0.40714330    -0.20700
C1374       C  0.84165723  0.16272346  0.40585256    -0.11500
C1375       C  0.88430452  0.09655523  0.42446775    -0.15700
C1376       C  0.88300124  0.07553816  0.44454091    -0.29500
C1377       C  0.79149028  0.17581136  0.42254721    -0.03800
C1378       C  0.79884872  0.20148558  0.43405176    -0.40300
H1379       H  0.78651764  0.11807167  0.42621918     0.12500
H1380       H  0.82570929  0.08322925  0.42734187     0.12100
H1381       H  0.88599430  0.15030397  0.40246952     0.11500
H1382       H  0.84646609  0.18483485  0.39980033     0.11800
H1383       H  0.90505322  0.10210967  0.41489106     0.14500
H1384       H  0.86271138  0.06944980  0.45460984     0.13300
H1385       H  0.76933192  0.16824870  0.42447817     0.11000
H1386       H  0.82108621  0.20889630  0.43343913     0.13000
C1387       C  0.16870786  0.17192330  0.45807933     0.19100
C1388       C  0.13997353  0.18133190  0.45820507    -0.19000
C1389       C  0.11735924  0.16160575  0.45489135    -0.11300
C1390       C  0.12323956  0.13204304  0.45125846     0.21300
C1391       C  0.15201781  0.12299701  0.44912019    -0.20700
C1392       C  0.17458028  0.14269163  0.45241883    -0.11500
C1393       C  0.10052440  0.10952995  0.45097032    -0.15700
C1394       C  0.07312117  0.11339920  0.45981027    -0.29500
C1395       C  0.19157728  0.19291748  0.46576736    -0.03800
C1396       C  0.21709240  0.18509497  0.47712839    -0.40300
H1397       H  0.13495197  0.20386576  0.46203065     0.12500
H1398       H  0.09552722  0.16964912  0.45572264     0.12100
H1399       H  0.15712283  0.10039513  0.44580949     0.11500
H1400       H  0.19643468  0.13475491  0.45094613     0.11800
H1401       H  0.10739536  0.08785560  0.44508585     0.14500
H1402       H  0.06488090  0.13455378  0.46540764     0.13300
H1403       H  0.18600140  0.21571201  0.46493647     0.11000
H1404       H  0.22312598  0.16254746  0.47890391     0.13000
C1405       C  0.00956963  0.67407372  0.14599716     0.19100
C1406       C  0.02908918  0.65166125  0.14040691    -0.19000
C1407       C  0.02667402  0.63479349  0.11551414    -0.11300
C1408       C  0.00429123  0.63956438  0.09560271     0.21300
C1409       C  0.98575060  0.66319295  0.10012340    -0.20700
C1410       C  0.98824657  0.68029045  0.12523803    -0.11500
C1411       C  0.00015126  0.61992293  0.07029973    -0.15700
C1412       C  0.00684161  0.59152626  0.07161454    -0.29500
C1413       C  0.00967949  0.68670432  0.17559319    -0.03800
C1414       C  0.99976718  0.71296799  0.18351650    -0.40300
H1415       H  0.04581852  0.64651208  0.15593962     0.12500
H1416       H  0.04217659  0.61768583  0.11217358     0.12100
H1417       H  0.96857530  0.66762582  0.08487246     0.11500
H1418       H  0.97263054  0.69719225  0.12910055     0.11800
H1419       H  0.99069904  0.62873451  0.05066680     0.14500
H1420       H  0.01416642  0.58234514  0.09196786     0.13300
H1421       H  0.01826749  0.67267479  0.19240566     0.11000
H1422       H  0.99305356  0.72866698  0.16740391     0.13000
C1423       C  0.99988532  0.81494143  0.31096712     0.19100
C1424       C  0.99668653  0.81447321  0.34124058    -0.19000
C1425       C  0.99877653  0.83976799  0.35755443    -0.11300
C1426       C  0.00449154  0.86647913  0.34408640     0.21300
C1427       C  0.00712533  0.86720250  0.31372293    -0.20700
C1428       C  0.00500369  0.84170547  0.29726771    -0.11500
C1429       C  0.00614404  0.89390765  0.36106801    -0.15700
C1430       C  0.01272368  0.89456326  0.38953999    -0.29500
C1431       C  0.99798758  0.78670076  0.29541974    -0.03800
C1432       C  0.99817631  0.78242877  0.26639634    -0.40300
H1433       H  0.99236289  0.79432175  0.35246817     0.12500
H1434       H  0.99526260  0.83821684  0.38066393     0.12100
H1435       H  0.01105979  0.88754369  0.30272190     0.11500
H1436       H  0.00757553  0.84313433  0.27404023     0.11800
H1437       H  0.00115774  0.91398765  0.34993740     0.14500
H1438       H  0.01882567  0.87479387  0.40057650     0.13300
H1439       H  0.99619306  0.76782354  0.30935146     0.11000
H1440       H  0.99986261  0.80049147  0.25149951     0.13000
C1441       C  0.98739985  0.32221227  0.79711037     0.19100
C1442       C  0.99144099  0.35192326  0.79219410    -0.19000
C1443       C  0.98925663  0.37184580  0.81477636    -0.11300
C1444       C  0.98277283  0.36259990  0.84312168     0.21300
C1445       C  0.97797480  0.33289403  0.84794073    -0.20700
C1446       C  0.98017404  0.31286150  0.82519873    -0.11500
C1447       C  0.98287261  0.38289453  0.86832659    -0.15700
C1448       C  0.98153856  0.41194363  0.86571743    -0.29500
C1449       C  0.99412421  0.30206738  0.77292416    -0.03800
C1450       C  0.98673599  0.27379923  0.77123510    -0.40300
H1451       H  0.99727761  0.35975617  0.77083215     0.12500
H1452       H  0.99391665  0.39422450  0.80988181     0.12100
H1453       H  0.97315853  0.32506362  0.86954234     0.11500
H1454       H  0.97738871  0.29011719  0.82996237     0.11800
H1455       H  0.98438615  0.37349350  0.88985658     0.14500
H1456       H  0.97863026  0.42178583  0.84461639     0.13300
H1457       H  0.00629503  0.31145680  0.75506365     0.11000
H1458       H  0.97283954  0.26387956  0.78738164     0.13000
C1459       C  0.96319578  0.17157355  0.64976156     0.19100
C1460       C  0.95634637  0.17787319  0.62077821    -0.19000
C1461       C  0.95520053  0.15605416  0.59983124    -0.11300
C1462       C  0.96121932  0.12722515  0.60732641     0.21300
C1463       C  0.96614639  0.12066431  0.63675226    -0.20700
C1464       C  0.96724293  0.14256950  0.65777268    -0.11500
C1465       C  0.96405304  0.10363060  0.58531651    -0.15700
C1466       C  0.96657433  0.10764541  0.55628500    -0.29500
C1467       C  0.97104748  0.19611842  0.66904376    -0.03800
C1468       C  0.97372345  0.19543734  0.69821077    -0.40300
H1469       H  0.95311260  0.20006439  0.61400148     0.12500
H1470       H  0.95037733  0.16216887  0.57777637     0.12100
H1471       H  0.97056958  0.09863222  0.64332272     0.11500
H1472       H  0.97300580  0.13692312  0.67977181     0.11800
H1473       H  0.96608683  0.08180722  0.59380185     0.14500
H1474       H  0.96502367  0.12908723  0.54696228     0.13300
H1475       H  0.97749593  0.21588584  0.65791743     0.11000
H1476       H  0.96582668  0.17734613  0.71097929     0.13000
C1477       C  0.96554418  0.69647075  0.81876608     0.19100
C1478       C  0.94542669  0.67434908  0.82448868    -0.19000
C1479       C  0.95039883  0.65390648  0.84616608    -0.11300
C1480       C  0.97571996  0.65500353  0.86279306     0.21300
C1481       C  0.99516134  0.67801346  0.85833426    -0.20700
C1482       C  0.99031271  0.69845578  0.83631092    -0.11500
C1483       C  0.98208235  0.63215366  0.88460273    -0.15700
C1484       C  0.97524155  0.60415092  0.87993751    -0.29500
C1485       C  0.96110092  0.71423071  0.79218734    -0.03800
C1486       C  0.97668143  0.73760137  0.78374183    -0.40300
H1487       H  0.92608466  0.67228059  0.81147241     0.12500
H1488       H  0.93450659  0.63703131  0.84968632     0.12100
H1489       H  0.01469754  0.67948185  0.87111714     0.11500
H1490       H  0.00647600  0.71494230  0.83244908     0.11800
H1491       H  0.99367333  0.63823714  0.90412947     0.14500
H1492       H  0.96576358  0.59789762  0.85934577     0.13300
H1493       H  0.94466359  0.70611557  0.77745603     0.11000
H1494       H  0.99216584  0.74773600  0.79814246     0.13000
C1495       C  0.99139485  0.84512853  0.66284874     0.19100
C1496       C  0.97188130  0.86595764  0.65302447    -0.19000
C1497       C  0.97819746  0.88298846  0.62886676    -0.11300
C1498       C  0.00423221  0.87947673  0.61356632     0.21300
C1499       C  0.02427529  0.85912082  0.62385156    -0.20700
C1500       C  0.01803723  0.84223415  0.64851651    -0.11500
C1501       C  0.00943195  0.89567843  0.58597505    -0.15700
C1502       C  0.99913308  0.92261681  0.58240101    -0.29500
C1503       C  0.98014636  0.82226301  0.68234095    -0.03800
C1504       C  0.99422596  0.81012746  0.70479126    -0.40300
H1505       H  0.95088681  0.86794588  0.66315811     0.12500
H1506       H  0.96179657  0.89772954  0.62123534     0.12100
H1507       H  0.04437171  0.85576671  0.61236900     0.11500
H1508       H  0.03304021  0.82557891  0.65508220     0.11800
H1509       H  0.02152682  0.88544153  0.56865552     0.14500
H1510       H  0.98932872  0.93330311  0.60087926     0.13300
H1511       H  0.95899074  0.81375190  0.67659560     0.11000
H1512       H  0.01440329  0.81910212  0.71272116     0.13000
C1513       C  0.17773790  0.66367847  0.51017748     0.19100
C1514       C  0.15304040  0.66280498  0.49257128    -0.19000
C1515       C  0.13529785  0.63840688  0.49190314    -0.11300
C1516       C  0.14177990  0.61415293  0.50895226     0.21300
C1517       C  0.16706411  0.61441913  0.52575585    -0.20700
C1518       C  0.18482069  0.63908037  0.52662815    -0.11500
C1519       C  0.12245824  0.58845325  0.50939567    -0.15700
C1520       C  0.09355440  0.59070486  0.50700647    -0.29500
C1521       C  0.19307269  0.69183018  0.51270601    -0.03800
C1522       C  0.21830743  0.69698412  0.52640422    -0.40300
H1523       H  0.14702608  0.68141351  0.47966522     0.12500
H1524       H  0.11648191  0.63861904  0.47802847     0.12100
H1525       H  0.17255910  0.59585614  0.53894608     0.11500
H1526       H  0.20338542  0.63906537  0.54079978     0.11800
H1527       H  0.13211530  0.56742235  0.51320084     0.14500
H1528       H  0.08372685  0.61191585  0.50531320     0.13300
H1529       H  0.18175071  0.71027648  0.50357939     0.11000
H1530       H  0.23180544  0.67955853  0.53425248     0.13000
C1531       C  0.83340686  0.30804802  0.51200761     0.19100
C1532       C  0.86215080  0.30295209  0.52008166    -0.19000
C1533       C  0.88157153  0.32579317  0.52391608    -0.11300
C1534       C  0.87279354  0.35450332  0.51934582     0.21300
C1535       C  0.84358807  0.35973552  0.51283357    -0.20700
C1536       C  0.82403647  0.33675424  0.50908916    -0.11500
C1537       C  0.89341860  0.37938326  0.52044594    -0.15700
C1538       C  0.92234203  0.37679304  0.51765198    -0.29500
C1539       C  0.81572714  0.28276271  0.50294683    -0.03800
C1540       C  0.78667736  0.28153566  0.50053727    -0.40300
H1541       H  0.86990280  0.28102165  0.52260952     0.12500
H1542       H  0.90345246  0.32065984  0.53006324     0.12100
H1543       H  0.83612524  0.38164960  0.50948871     0.11500
H1544       H  0.80214983  0.34146836  0.50251237     0.11800
H1545       H  0.88420021  0.40089080  0.52195446     0.14500
H1546       H  0.93206456  0.35567717  0.51509188     0.13300
H1547       H  0.82798062  0.26367967  0.49692353     0.11000
H1548       H  0.77312112  0.29894942  0.50832472     0.13000
C1549       C  0.18262999  0.30822151  0.52272850     0.19100
C1550       C  0.18781871  0.33400775  0.50727502    -0.19000
C1551       C  0.16586925  0.35496574  0.50439444    -0.11300
C1552       C  0.13835993  0.35046842  0.51696740     0.21300
C1553       C  0.13386465  0.32514820  0.53314296    -0.20700
C1554       C  0.15555309  0.30445772  0.53596040    -0.11500
C1555       C  0.11321796  0.37053153  0.51336112    -0.15700
C1556       C  0.11482888  0.39830565  0.50445378    -0.29500
C1557       C  0.20203101  0.28246862  0.52164319    -0.03800
C1558       C  0.23093372  0.28154539  0.51677453    -0.40300
H1559       H  0.20816511  0.33730650  0.49620301     0.12500
H1560       H  0.17022894  0.37398012  0.49143884     0.12100
H1561       H  0.11313429  0.32097165  0.54323009     0.11500
H1562       H  0.15071600  0.28475966  0.54777403     0.11800
H1563       H  0.09222716  0.36227557  0.52000369     0.14500
H1564       H  0.13562529  0.40773575  0.49910374     0.13300
H1565       H  0.19087147  0.26187656  0.52421982     0.11000
H1566       H  0.24388445  0.30113734  0.51618433     0.13000
C1567       C  0.83790204  0.66442681  0.50241584     0.19100
C1568       C  0.82962318  0.63508865  0.50207804    -0.19000
C1569       C  0.85053758  0.61318922  0.50501080    -0.11300
C1570       C  0.88004835  0.62032268  0.50825059     0.21300
C1571       C  0.88787847  0.64960773  0.50897934    -0.20700
C1572       C  0.86721940  0.67121775  0.50622292    -0.11500
C1573       C  0.90390323  0.59867105  0.50962237    -0.15700
C1574       C  0.90070222  0.56996276  0.51376952    -0.29500
C1575       C  0.81805163  0.68909168  0.49665105    -0.03800
C1576       C  0.78908079  0.68838243  0.49278844    -0.40300
H1577       H  0.80731331  0.62896373  0.49884282     0.12500
H1578       H  0.84354825  0.59089522  0.50390380     0.12100
H1579       H  0.91029532  0.65592080  0.51134442     0.11500
H1580       H  0.87442683  0.69353905  0.50643847     0.11800
H1581       H  0.92568179  0.60715240  0.50717671     0.14500
H1582       H  0.87937805  0.56067038  0.51668602     0.13300
H1583       H  0.82879133  0.70992244  0.49441754     0.11000
H1584       H  0.77671765  0.66871303  0.49621005     0.13000
C1585       C  0.17324561  0.50751994  0.32870329     0.19100
C1586       C  0.14690884  0.52195990  0.33217406    -0.19000
C1587       C  0.13131163  0.51966871  0.35787983    -0.11300
C1588       C  0.14142338  0.50240640  0.38074776     0.21300
C1589       C  0.16848331  0.48904820  0.37798102    -0.20700
C1590       C  0.18426860  0.49141258  0.35205640    -0.11500
C1591       C  0.12358756  0.49785181  0.40719147    -0.15700
C1592       C  0.09457763  0.49646355  0.40565393    -0.29500
C1593       C  0.18649081  0.50782145  0.29941468    -0.03800
C1594       C  0.21435624  0.50234778  0.29289952    -0.40300
H1595       H  0.13801250  0.53469574  0.31462678     0.12500
H1596       H  0.11112100  0.53121663  0.35965526     0.12100
H1597       H  0.17685170  0.47586645  0.39544290     0.11500
H1598       H  0.20433273  0.47972663  0.34996553     0.11800
H1599       H  0.13438183  0.49459130  0.42781281     0.14500
H1600       H  0.08414375  0.49773195  0.38462900     0.13300
H1601       H  0.17193228  0.51344747  0.28185049     0.11000
H1602       H  0.23012330  0.49862437  0.30984529     0.13000
C1603       C  0.84193132  0.46476603  0.32548210     0.19100
C1604       C  0.83551092  0.47884766  0.35171497    -0.19000
C1605       C  0.85577076  0.47918314  0.37447565    -0.11300
C1606       C  0.88273872  0.46542589  0.37131985     0.21300
C1607       C  0.88842473  0.45060858  0.34548472    -0.20700
C1608       C  0.86837061  0.45029028  0.32295533    -0.11500
C1609       C  0.90657477  0.46784746  0.39298586    -0.15700
C1610       C  0.90289628  0.47346949  0.42137630    -0.29500
C1611       C  0.82373369  0.46702048  0.29898308    -0.03800
C1612       C  0.79507640  0.47233475  0.29793387    -0.40300
H1613       H  0.81558397  0.49070699  0.35418250     0.12500
H1614       H  0.85078451  0.49130838  0.39385011     0.12100
H1615       H  0.90888478  0.43979359  0.34238068     0.11500
H1616       H  0.87395354  0.43929633  0.30302082     0.11800
H1617       H  0.92835707  0.46411427  0.38512210     0.14500
H1618       H  0.88125787  0.47542585  0.43014706     0.13300
H1619       H  0.83505396  0.46345364  0.27867270     0.11000
H1620       H  0.78254734  0.47417908  0.31770915     0.13000
C1621       C  0.17556282  0.49028199  0.69469092     0.19100
C1622       C  0.18293052  0.49785663  0.66608805    -0.19000
C1623       C  0.16238778  0.49543022  0.64366556    -0.11300
C1624       C  0.13412090  0.48528662  0.64950853     0.21300
C1625       C  0.12768544  0.47624288  0.67782808    -0.20700
C1626       C  0.14797805  0.47882470  0.70002296    -0.11500
C1627       C  0.11005612  0.48468308  0.62774816    -0.15700
C1628       C  0.11218625  0.49258123  0.59966927    -0.29500
C1629       C  0.19313301  0.49891685  0.72030470    -0.03800
C1630       C  0.22203875  0.50301839  0.72159531    -0.40300
H1631       H  0.20384592  0.50724638  0.66134847     0.12500
H1632       H  0.16856275  0.50250066  0.62222321     0.12100
H1633       H  0.10637260  0.46810250  0.68314828     0.11500
H1634       H  0.14159449  0.47299194  0.72185886     0.11800
H1635       H  0.08912268  0.47729240  0.63548555     0.14500
H1636       H  0.13279855  0.49929428  0.59078891     0.13300
H1637       H  0.18068917  0.50359688  0.73974089     0.11000
H1638       H  0.23607586  0.49677094  0.70386987     0.13000
C1639       C  0.83163502  0.46440611  0.68516471     0.19100
C1640       C  0.86151295  0.46278098  0.68978997    -0.19000
C1641       C  0.88081406  0.46209585  0.66655658    -0.11300
C1642       C  0.87077189  0.46374593  0.63782932     0.21300
C1643       C  0.84073906  0.46403567  0.63312916    -0.20700
C1644       C  0.82130915  0.46441246  0.65654691    -0.11500
C1645       C  0.89087935  0.46551912  0.61247869    -0.15700
C1646       C  0.91900979  0.47303679  0.61474444    -0.29500
C1647       C  0.81295100  0.47092182  0.71051784    -0.03800
C1648       C  0.78423016  0.46604067  0.71288946    -0.40300
H1649       H  0.87007281  0.46280929  0.71162826     0.12500
H1650       H  0.90353346  0.46056572  0.67147820     0.12100
H1651       H  0.83229799  0.46499795  0.61127675     0.11500
H1652       H  0.79844052  0.46624050  0.65222892     0.11800
H1653       H  0.88197540  0.46132677  0.59111487     0.14500
H1654       H  0.92821985  0.47812988  0.63568811     0.13300
H1655       H  0.82372886  0.48197055  0.72830194     0.11000
H1656       H  0.77268415  0.45314824  0.69702078     0.13000
C1657       C  0.98843404  0.65476363  0.33099864     0.19100
C1658       C  0.00235189  0.65729209  0.35779623    -0.19000
C1659       C  0.00406060  0.63362761  0.37652504    -0.11300
C1660       C  0.99117470  0.60698039  0.36914492     0.21300
C1661       C  0.97705891  0.60452192  0.34237796    -0.20700
C1662       C  0.97551298  0.62820081  0.32352486    -0.11500
C1663       C  0.99244362  0.58142604  0.38876609    -0.15700
C1664       C  0.99465034  0.58423771  0.41765162    -0.29500
C1665       C  0.98834214  0.68010011  0.31126755    -0.03800
C1666       C  0.98868822  0.67739394  0.28229652    -0.40300
H1667       H  0.01259721  0.67747001  0.36395152     0.12500
H1668       H  0.01600860  0.63622868  0.39646992     0.12100
H1669       H  0.96693887  0.58430542  0.33617784     0.11500
H1670       H  0.96398447  0.62570623  0.30330243     0.11800
H1671       H  0.99046447  0.55998402  0.37936678     0.14500
H1672       H  0.99484370  0.60567983  0.42717948     0.13300
H1673       H  0.99042242  0.70145560  0.32086722     0.11000
H1674       H  0.98828234  0.65607108  0.27250481     0.13000
C1675       C  0.06220092  0.34956246  0.62384708     0.19100
C1676       C  0.06804470  0.32059031  0.61745329    -0.19000
C1677       C  0.07260139  0.30078888  0.63984671    -0.11300
C1678       C  0.07084139  0.30979893  0.66898747     0.21300
C1679       C  0.06957531  0.33947994  0.67492388    -0.20700
C1680       C  0.06531084  0.35925853  0.65254586    -0.11500
C1681       C  0.06391601  0.28958402  0.69306771    -0.15700
C1682       C  0.05175933  0.26364798  0.68812100    -0.29500
C1683       C  0.05153936  0.36882480  0.60061825    -0.03800
C1684       C  0.03362026  0.39090584  0.60622929    -0.40300
H1685       H  0.06712744  0.31289602  0.59531165     0.12500
H1686       H  0.07553424  0.27834761  0.63413263     0.12100
H1687       H  0.06922132  0.34719692  0.69707326     0.11500
H1688       H  0.06297101  0.38187638  0.65798855     0.11800
H1689       H  0.06213429  0.29880505  0.71464921     0.14500
H1690       H  0.05300906  0.25375409  0.66691556     0.13300
H1691       H  0.05775737  0.36421163  0.57838903     0.11000
H1692       H  0.02688086  0.39544736  0.62827835     0.13000
C1693       C  0.95496849  0.66407428  0.66700603     0.19100
C1694       C  0.96418871  0.63674228  0.67626237    -0.19000
C1695       C  0.97193541  0.61567580  0.65610627    -0.11300
C1696       C  0.97049024  0.62168363  0.62624830     0.21300
C1697       C  0.95940760  0.64830725  0.61707344    -0.20700
C1698       C  0.95159710  0.66929286  0.63718860    -0.11500
C1699       C  0.97937306  0.60069608  0.60384521    -0.15700
C1700       C  0.99658785  0.57791233  0.60883322    -0.29500
C1701       C  0.95172794  0.68721393  0.68885287    -0.03800
C1702       C  0.95663093  0.71515045  0.68240702    -0.40300
H1703       H  0.96647364  0.63204569  0.69914774     0.12500
H1704       H  0.97907630  0.59493186  0.66409773     0.12100
H1705       H  0.95730921  0.65312983  0.59419550     0.11500
H1706       H  0.94336621  0.68964186  0.62921275     0.11800
H1707       H  0.97120398  0.60423337  0.58205179     0.14500
H1708       H  0.00510802  0.57355409  0.63025489     0.13300
H1709       H  0.94972559  0.68073235  0.71141325     0.11000
H1710       H  0.96009686  0.72191130  0.66016896     0.13000
C1711       C  0.01913053  0.31543511  0.13058807     0.19100
C1712       C  0.04100233  0.33448165  0.12148643    -0.19000
C1713       C  0.03724542  0.35216687  0.09723999    -0.11300
C1714       C  0.01130574  0.35149978  0.08151503     0.21300
C1715       C  0.98995464  0.33128292  0.08953715    -0.20700
C1716       C  0.99371582  0.31348679  0.11400949    -0.11500
C1717       C  0.00608674  0.37249784  0.05747701    -0.15700
C1718       C  0.01491255  0.40026726  0.05953674    -0.29500
C1719       C  0.02211712  0.30182148  0.15965898    -0.03800
C1720       C  0.00869950  0.27750560  0.16896929    -0.40300
H1721       H  0.06079325  0.33641792  0.13382566     0.12500
H1722       H  0.05447658  0.36685415  0.09116070     0.12100
H1723       H  0.96981436  0.33024443  0.07769656     0.11500
H1724       H  0.97620491  0.29944844  0.12075128     0.11800
H1725       H  0.99342054  0.36562645  0.03891399     0.14500
H1726       H  0.02521948  0.40737228  0.07944894     0.13300
H1727       H  0.03582570  0.31346035  0.17483024     0.11000
H1728       H  0.99645155  0.26412093  0.15406372     0.13000
C1729       C  0.98052193  0.18046008  0.29754791     0.19100
C1730       C  0.99318233  0.15355497  0.29124258    -0.19000
C1731       C  0.99249939  0.13099092  0.31185731    -0.11300
C1732       C  0.97913657  0.13505290  0.33908468     0.21300
C1733       C  0.96560025  0.16153631  0.34453471    -0.20700
C1734       C  0.96626131  0.18379308  0.32416876    -0.11500
C1735       C  0.97989639  0.11364127  0.36340429    -0.15700
C1736       C  0.98847572  0.08589182  0.36152893    -0.29500
C1737       C  0.98435957  0.20694910  0.27944110    -0.03800
C1738       C  0.99397981  0.20868587  0.25177252    -0.40300
H1739       H  0.00468075  0.15030587  0.27111217     0.12500
H1740       H  0.00337413  0.11100582  0.30675844     0.12100
H1741       H  0.95503604  0.16540519  0.36511087     0.11500
H1742       H  0.95634129  0.20421331  0.32976951     0.11800
H1743       H  0.97265738  0.12140009  0.38439601     0.14500
H1744       H  0.99490635  0.07693207  0.34082302     0.13300
H1745       H  0.97959317  0.22710300  0.29053558     0.11000
H1746       H  0.99736448  0.18939847  0.23889187     0.13000
C1747       C  0.01491158  0.32975054  0.31956811     0.19100
C1748       C  0.00425343  0.32340299  0.34728789    -0.19000
C1749       C  0.00376102  0.34449405  0.36872605    -0.11300
C1750       C  0.01435729  0.37244308  0.36300759     0.21300
C1751       C  0.02510614  0.37890668  0.33534754    -0.20700
C1752       C  0.02559410  0.35772832  0.31379306    -0.11500
C1753       C  0.01346941  0.39543849  0.38517570    -0.15700
C1754       C  0.01397409  0.38954398  0.41365537    -0.29500
C1755       C  0.01399518  0.30642234  0.29765618    -0.03800
C1756       C  0.01747602  0.31043337  0.26901451    -0.40300
H1757       H  0.99574181  0.30211043  0.35227792     0.12500
H1758       H  0.99436149  0.33892178  0.38945664     0.12100
H1759       H  0.03330496  0.40034452  0.33047570     0.11500
H1760       H  0.03449496  0.36346314  0.29292049     0.11800
H1761       H  0.01295218  0.41776998  0.37782961     0.14500
H1762       H  0.01637503  0.36745369  0.42120734     0.13300
H1763       H  0.00867266  0.28488914  0.30554055     0.11000
H1764       H  0.02192643  0.33167094  0.26010133     0.13000
loop_ 
_geom_bond_atom_site_label_1 
_geom_bond_atom_site_label_2 
_geom_bond_distance 
_geom_bond_site_symmetry_2 
_ccdc_geom_bond_type 
C1            N2   1.360       .  A
C1            N6   1.371       .  A
C1         C1720   1.488       .  S
N2            C3   1.349       .  A
C3            N4   1.351       .  A
C3         C1756   1.473       .  S
N4            C5   1.356       .  A
C5            N6   1.369       .  A
C5         C1738   1.492   1_455  S
O7           C18   1.291       .  A
O7          Eu43   2.449       .  S
O8           C19   1.287       .  A
O8          Eu42   2.439       .  S
O9           C20   1.295       .  A
O9          Eu15   2.480       .  S
O10          C21   1.293       .  A
O10         Eu15   2.471   1_655  S
O11          C21   1.292       .  A
O11         Eu45   2.461       .  S
O12          C20   1.292       .  A
O12         Eu44   2.475       .  S
O13          C19   1.292       .  A
O13         Eu15   2.462       .  S
O14          C18   1.288       .  A
O14         Eu15   2.442       .  S
Eu15         O25   2.366   1_455  S
Eu15         O17   2.354       .  S
Eu15         O16   2.356   1_455  S
Eu15         O23   2.347       .  S
O16         Eu45   2.365       .  S
O16         Eu42   2.358   1_655  S
O17         Eu43   2.364       .  S
O17         Eu44   2.353       .  S
C18        C1754   1.466       .  S
C19        C1684   1.466       .  S
C20        C1556   1.493       .  S
C21        C1538   1.483       .  S
H22          O23   0.965       .  S
O23         Eu44   2.344       .  S
O23         Eu42   2.353       .  S
H24          O25   0.966       .  S
O25         Eu43   2.361   1_655  S
O25         Eu45   2.355       .  S
O26          C49   1.288       .  A
O26         Eu42   2.449       .  S
O27          C50   1.295       .  A
O27         Eu43   2.485   1_655  S
O28          C51   1.292       .  A
O28         Eu44   2.470       .  S
O29          C52   1.292       .  A
O29         Eu45   2.461       .  S
O30          C53   1.291       .  A
O30         Eu45   2.468       .  S
O31          C54   1.292       .  A
O31         Eu44   2.466       .  S
O32          C55   1.293       .  A
O32         Eu46   2.469       .  S
O33          C56   1.295       .  A
O33         Eu46   2.473   1_655  S
O34          C55   1.291       .  A
O34         Eu44   2.452       .  S
O35          C56   1.292       .  A
O35         Eu45   2.473       .  S
O36          C51   1.296       .  A
O36         Eu42   2.484       .  S
O37          C54   1.291       .  A
O37         Eu43   2.457       .  S
O38          C53   1.296       .  A
O38         Eu43   2.482   1_655  S
O39          C52   1.293       .  A
O39         Eu42   2.474   1_655  S
O40          C49   1.291   1_655  A
O40         Eu46   2.447   1_655  S
O41          C50   1.287       .  A
O41         Eu46   2.438   1_655  S
Eu42         O60   2.355   1_455  S
Eu42         O48   2.352       .  S
Eu43         O47   2.348   1_455  S
Eu43         O58   2.354       .  S
Eu44         O58   2.359       .  S
Eu44         O48   2.363       .  S
Eu45         O47   2.357       .  S
Eu45         O60   2.354       .  S
Eu46         O47   2.354   1_455  S
Eu46         O58   2.350       .  S
Eu46         O60   2.348   1_455  S
Eu46         O48   2.353       .  S
C49        C1700   1.469   1_455  S
C50        C1664   1.476       .  S
C51        C1628   1.491       .  S
C52        C1646   1.482       .  S
C53        C1610   1.489       .  S
C54        C1592   1.476       .  S
C55        C1520   1.478       .  S
C56        C1574   1.490       .  S
H57          O58   0.965       .  S
H59          O60   0.966       .  S
C61          N62   1.358       .  A
C61          N66   1.370       .  A
C61        C1486   1.488       .  S
N62          C63   1.350       .  A
C63          N64   1.347       .  A
C63        C1702   1.468       .  S
N64          C65   1.356       .  A
C65          N66   1.369       .  A
C65        C1504   1.483       .  S
C67          N68   1.369       .  A
C67          N72   1.361   1_655  A
C67        C1450   1.487       .  S
N68          C69   1.367       .  A
C69          N70   1.355   1_655  A
C69        C1468   1.482       .  S
N70          C71   1.347       .  A
C71          N72   1.354       .  A
C71        C1682   1.470       .  S
C73          N74   1.368       .  A
C73          N78   1.358       .  A
C73        C1414   1.488       .  S
N74          C75   1.369       .  A
C75          N76   1.361       .  A
C75        C1432   1.492       .  S
N76          C77   1.354       .  A
C77          N78   1.349       .  A
C77        C1666   1.474       .  S
O79          C90   1.292       .  A
O79        Eu115   2.472   1_545  S
O80          C91   1.289       .  A
O80        Eu114   2.446       .  S
O81          C92   1.293       .  A
O81         Eu87   2.464       .  S
O82          C93   1.290       .  A
O82         Eu87   2.459   1_455  S
O83          C93   1.289       .  A
O83        Eu117   2.435       .  S
O84          C92   1.286       .  A
O84        Eu116   2.433   1_545  S
O85          C91   1.298       .  A
O85         Eu87   2.502       .  S
O86          C90   1.296       .  A
O86         Eu87   2.477       .  S
Eu87         O97   2.368   1_655  S
Eu87         O89   2.350       .  S
Eu87         O88   2.359   1_655  S
Eu87         O95   2.356       .  S
O88        Eu117   2.370       .  S
O88        Eu114   2.359   1_455  S
O89        Eu115   2.346   1_545  S
O89        Eu116   2.345   1_545  S
C90        C1736   1.490       .  S
C91        C1466   1.491       .  S
C92        C1376   1.464       .  S
C93        C1394   1.470       .  S
H94          O95   0.966       .  S
O95        Eu116   2.357   1_545  S
O95        Eu114   2.354       .  S
H96          O97   0.964       .  S
O97        Eu115   2.354   1_445  S
O97        Eu117   2.350       .  S
O98         C121   1.287       .  A
O98        Eu114   2.440   1_565  S
O99         C122   1.293       .  A
O99        Eu115   2.472   1_455  S
O100        C123   1.292       .  A
O100       Eu116   2.466       .  S
O101        C124   1.297       .  A
O101       Eu117   2.490       .  S
O102        C125   1.299       .  A
O102       Eu117   2.508       .  S
O103        C126   1.294       .  A
O103       Eu116   2.474       .  S
O104        C127   1.287       .  A
O104       Eu118   2.440   1_655  S
O105        C128   1.291       .  A
O105       Eu118   2.447       .  S
O106        C127   1.291       .  A
O106       Eu116   2.451       .  S
O107        C128   1.288       .  A
O107       Eu117   2.445   1_565  S
O108        C123   1.293   1_545  A
O108       Eu114   2.473       .  S
O109        C126   1.288       .  A
O109       Eu115   2.450       .  S
O110        C125   1.286   1_565  A
O110       Eu115   2.435   1_455  S
O111        C124   1.293       .  A
O111       Eu114   2.471   1_455  S
O112        C121   1.297   1_455  A
O112       Eu118   2.496       .  S
O113        C122   1.291       .  A
O113       Eu118   2.461       .  S
Eu114       O132   2.352   1_645  S
Eu114       O120   2.352   1_545  S
Eu115       O119   2.358   1_655  S
Eu115       O130   2.349       .  S
Eu116       O130   2.349       .  S
Eu116       O120   2.352       .  S
Eu117       O119   2.352   1_545  S
Eu117       O132   2.356   1_545  S
Eu118       O119   2.357       .  S
Eu118       O130   2.366   1_455  S
Eu118       O132   2.343       .  S
Eu118       O120   2.353   1_455  S
C121       C1502   1.480       .  S
C122       C1430   1.480       .  S
C123       C1268   1.485       .  S
C124       C1286   1.493       .  S
C125       C1306   1.488       .  S
C126       C1324   1.480       .  S
C127       C1358   1.464       .  S
C128       C1342   1.472       .  S
H129        O130   0.965       .  S
H131        O132   0.966       .  S
C133        N134   1.355       .  A
C133        N138   1.376       .  A
C133       C1558   1.498       .  S
N134        C135   1.348       .  A
C135        N136   1.348       .  A
C135       C1396   1.468       .  S
N136        C137   1.359       .  A
C137        N138   1.377       .  A
C137       C1250   1.499       .  S
C139        N140   1.360       .  A
C139        N144   1.369       .  A
C139       C1232   1.491       .  S
N140        C141   1.352       .  A
C141        N142   1.348       .  A
C141       C1378   1.470       .  S
N142        C143   1.357       .  A
C143        N144   1.368       .  A
C143       C1540   1.485       .  S
C145        N146   1.371       .  A
C145        N150   1.355       .  A
C145       C1214   1.486       .  S
N146        C147   1.371       .  A
C147        N148   1.359       .  A
C147       C1576   1.492       .  S
N148        C149   1.349       .  A
C149        N150   1.343       .  A
C149       C1360   1.466       .  S
C151        N152   1.358       .  A
C151        N156   1.368       .  A
C151       C1522   1.482       .  S
N152        C153   1.348       .  A
C153        N154   1.350       .  A
C153       C1340   1.469       .  S
N154        C155   1.357       .  A
C155        N156   1.368       .  A
C155       C1196   1.486       .  S
C157        N158   1.358       .  A
C157        N162   1.368       .  A
C157       C1160   1.486       .  S
N158        C159   1.348       .  A
C159        N160   1.351       .  A
C159       C1180   1.471       .  S
N160        C161   1.359       .  A
C161        N162   1.369       .  A
C161       C1322   1.485       .  S
O163        C174   1.296       .  A
O163       Eu199   2.489       .  S
O164        C175   1.289       .  A
O164       Eu198   2.453       .  S
O165        C176   1.291       .  A
O165       Eu171   2.461       .  S
O166        C177   1.289       .  A
O166       Eu171   2.440       .  S
O167        C177   1.289       .  A
O167       Eu201   2.452       .  S
O168        C176   1.289       .  A
O168       Eu200   2.437       .  S
O169        C175   1.295       .  A
O169       Eu171   2.475       .  S
O170        C174   1.294       .  A
O170       Eu171   2.476   1_545  S
Eu171       O181   2.363   1_565  S
Eu171       O173   2.353   1_565  S
Eu171       O172   2.347       .  S
Eu171       O179   2.354       .  S
O172       Eu201   2.348       .  S
O172       Eu198   2.345       .  S
O173       Eu199   2.361       .  S
O173       Eu200   2.354   1_545  S
C174       C1252   1.493       .  S
C175       C1198   1.483       .  S
C176       C1106   1.472       .  S
C177       C1142   1.469       .  S
H178        O179   0.967       .  S
O179       Eu200   2.359       .  S
O179       Eu198   2.356       .  S
H180        O181   0.964       .  S
O181       Eu199   2.370       .  S
O181       Eu201   2.366   1_545  S
O182        C205   1.289       .  A
O182       Eu198   2.446       .  S
O183        C206   1.295       .  A
O183       Eu199   2.485       .  S
O184        C207   1.289       .  A
O184       Eu200   2.445       .  S
O185        C208   1.294       .  A
O185       Eu201   2.476       .  S
O186        C209   1.294       .  A
O186       Eu201   2.476   1_545  S
O187        C210   1.289       .  A
O187       Eu200   2.447   1_545  S
O188        C211   1.286       .  A
O188       Eu202   2.434       .  S
O189        C212   1.284       .  A
O189       Eu202   2.425       .  S
O190        C211   1.292       .  A
O190       Eu200   2.465       .  S
O191        C212   1.291       .  A
O191       Eu201   2.459       .  S
O192        C207   1.292       .  A
O192       Eu198   2.462       .  S
O193        C210   1.295       .  A
O193       Eu199   2.484       .  S
O194        C209   1.293       .  A
O194       Eu199   2.466       .  S
O195        C208   1.293       .  A
O195       Eu198   2.470       .  S
O196        C205   1.292       .  A
O196       Eu202   2.471       .  S
O197        C206   1.289       .  A
O197       Eu202   2.447   1_545  S
Eu198       O216   2.348       .  S
Eu198       O204   2.349       .  S
Eu199       O203   2.368       .  S
Eu199       O214   2.366       .  S
Eu200       O214   2.349   1_565  S
Eu200       O204   2.336       .  S
Eu201       O203   2.354   1_565  S
Eu201       O216   2.350       .  S
Eu202       O203   2.354   1_565  S
Eu202       O214   2.349   1_565  S
Eu202       O216   2.345       .  S
Eu202       O204   2.336       .  S
C205       C1216   1.477       .  S
C206       C1234   1.479       .  S
C207       C1052   1.471       .  S
C208       C1088   1.486       .  S
C209       C1072   1.486       .  S
C210       C1036   1.477       .  S
C211       C1178   1.470       .  S
C212       C1126   1.458       .  S
H213        O214   0.966       .  S
H215        O216   0.965       .  S
C217        N218   1.359       .  A
C217        N222   1.376   1_565  A
C217       C1018   1.503       .  S
N218        C219   1.349       .  A
C219        N220   1.346       .  A
C219       C1144   1.468       .  S
N220        C221   1.356       .  A
C221        N222   1.376   1_565  A
C221       C1288   1.497   1_565  S
C223        N224   1.369       .  A
C223        N228   1.354       .  A
C223       C1000   1.482   1_565  S
N224        C225   1.371       .  A
C225        N226   1.360       .  A
C225       C1270   1.493       .  S
N226        C227   1.354       .  A
C227        N228   1.346       .  A
C227       C1124   1.468       .  S
C229        N230   1.359       .  A
C229        N234   1.370       .  A
C229        C980   1.485   1_565  S
N230        C231   1.348       .  A
C231        N232   1.352       .  A
C231       C1108   1.473       .  S
N232        C233   1.358       .  A
C233        N234   1.370       .  A
C233       C1304   1.496       .  S
O235        C246   1.293       .  A
O235       Eu271   2.478   1_554  S
O236        C247   1.294       .  A
O236       Eu270   2.477   1_554  S
O237        C248   1.293       .  A
O237       Eu243   2.465   1_545  S
O238        C249   1.294       .  A
O238       Eu243   2.472       .  S
O239        C249   1.288       .  A
O239       Eu273   2.441   1_554  S
O240        C248   1.286       .  A
O240       Eu272   2.430   1_554  S
O241        C247   1.289       .  A
O241       Eu243   2.448       .  S
O242        C246   1.291   1_565  A
O242       Eu243   2.460       .  S
Eu243       O253   2.353   1_554  S
Eu243       O245   2.355   1_565  S
Eu243       O244   2.351       .  S
Eu243       O251   2.357   1_565  S
O244       Eu273   2.357   1_554  S
O244       Eu270   2.353   1_554  S
O245       Eu271   2.352   1_554  S
O245       Eu272   2.360   1_554  S
C246       C1162   1.482   1_545  S
C247        C982   1.477   1_565  S
C248        C962   1.467       .  S
C249        C944   1.474       .  S
H250        O251   0.967       .  S
O251       Eu272   2.355   1_554  S
O251       Eu270   2.360   1_544  S
H252        O253   0.966   1_554  S
O253       Eu271   2.353   1_565  S
O253       Eu273   2.353       .  S
O254        C277   1.294       .  A
O254       Eu270   2.480       .  S
O255        C278   1.291       .  A
O255       Eu271   2.458       .  S
O256        C279   1.298       .  A
O256       Eu272   2.502       .  S
O257        C280   1.293       .  A
O257       Eu273   2.469       .  S
O258        C281   1.298       .  A
O258       Eu273   2.494       .  S
O259        C282   1.297       .  A
O259       Eu272   2.495       .  S
O260        C283   1.290       .  A
O260       Eu274   2.456       .  S
O261        C284   1.287       .  A
O261       Eu274   2.438   1_565  S
O262        C283   1.284       .  A
O262       Eu272   2.426       .  S
O263        C284   1.291       .  A
O263       Eu273   2.452       .  S
O264        C279   1.289       .  A
O264       Eu270   2.446   1_545  S
O265        C282   1.288       .  A
O265       Eu271   2.444       .  S
O266        C281   1.290       .  A
O266       Eu271   2.458   1_565  S
O267        C280   1.292       .  A
O267       Eu270   2.466       .  S
O268        C277   1.294   1_545  A
O268       Eu274   2.477       .  S
O269        C278   1.295       .  A
O269       Eu274   2.482       .  S
Eu270       O288   2.358       .  S
Eu270       O276   2.353   1_565  S
Eu271       O275   2.357   1_545  S
Eu271       O286   2.369       .  S
Eu272       O286   2.351       .  S
Eu272       O276   2.351       .  S
Eu273       O275   2.348       .  S
Eu273       O288   2.355       .  S
Eu274       O275   2.357   1_545  S
Eu274       O286   2.356       .  S
Eu274       O288   2.357   1_545  S
Eu274       O276   2.343       .  S
C277       C1016   1.489       .  S
C278        C998   1.484       .  S
C279        C892   1.485       .  S
C280        C856   1.482       .  S
C281        C874   1.490       .  S
C282        C836   1.482       .  S
C283        C908   1.456       .  S
C284        C926   1.466       .  S
H285        O286   0.965       .  S
H287        O288   0.966       .  S
C289        N290   1.369       .  A
C289        N294   1.357       .  A
C289       C1034   1.487       .  S
N290        C291   1.370       .  A
C291        N292   1.360       .  A
C291        C820   1.491       .  S
N292        C293   1.354       .  A
C293        N294   1.348       .  A
C293        C964   1.471       .  S
C295        N296   1.367       .  A
C295        N300   1.364       .  A
C295        C800   1.486       .  S
N296        C297   1.363       .  A
C297        N298   1.355       .  A
C297       C1054   1.483       .  S
N298        C299   1.348       .  A
C299        N300   1.357       .  A
C299        C946   1.473       .  S
C301        N302   1.374       .  A
C301        N306   1.359       .  A
C301        C784   1.498       .  S
N302        C303   1.373       .  A
C303        N304   1.355       .  A
C303       C1090   1.491       .  S
N304        C305   1.347       .  A
C305        N306   1.346       .  A
C305        C928   1.467       .  S
C307        N308   1.371       .  A
C307        N312   1.356       .  A
C307       C1070   1.484       .  S
N308        C309   1.371       .  A
C309        N310   1.357       .  A
C309        C766   1.495       .  S
N310        C311   1.352       .  A
C311        N312   1.348       .  A
C311        C910   1.470       .  S
O313        C324   1.296       .  A
O313       Eu349   2.490   1_454  S
O314        C325   1.290   1_655  A
O314       Eu348   2.458   1_554  S
O315        C326   1.290       .  A
O315       Eu321   2.442       .  S
O316        C327   1.285       .  A
O316       Eu321   2.426   1_655  S
O317        C327   1.293       .  A
O317       Eu351   2.463   1_554  S
O318        C326   1.289   1_556  A
O318       Eu350   2.455       .  S
O319        C325   1.293       .  A
O319       Eu321   2.472       .  S
O320        C324   1.291       .  A
O320       Eu321   2.460       .  S
Eu321       O331   2.353   1_455  S
Eu321       O323   2.347   1_554  S
Eu321       O322   2.347   1_455  S
Eu321       O329   2.344   1_554  S
O322       Eu351   2.352   1_554  S
O322       Eu348   2.353   1_554  S
O323       Eu349   2.357   1_455  S
O323       Eu350   2.350       .  S
C324       C1718   1.484       .  S
C325       C1412   1.481       .  S
C326        C728   1.475       .  S
C327        C748   1.466       .  S
H328        O329   0.966   1_554  S
O329       Eu350   2.364       .  S
O329       Eu348   2.362   1_455  S
H330        O331   0.965       .  S
O331       Eu349   2.353   1_554  S
O331       Eu351   2.348   1_554  S
O332        C355   1.292       .  A
O332       Eu348   2.464       .  S
O333        C356   1.293       .  A
O333       Eu349   2.468       .  S
O334        C357   1.295       .  A
O334       Eu350   2.478       .  S
O335        C358   1.293       .  A
O335       Eu351   2.473       .  S
O336        C359   1.294       .  A
O336       Eu351   2.470       .  S
O337        C360   1.300       .  A
O337       Eu350   2.504       .  S
O338        C361   1.289       .  A
O338       Eu352   2.453   1_455  S
O339        C362   1.293       .  A
O339       Eu352   2.468       .  S
O340        C361   1.290       .  A
O340       Eu350   2.447       .  S
O341        C362   1.288       .  A
O341       Eu351   2.448       .  S
O342        C357   1.291       .  A
O342       Eu348   2.461   1_455  S
O343        C360   1.290       .  A
O343       Eu349   2.457   1_455  S
O344        C359   1.291       .  A
O344       Eu349   2.462       .  S
O345        C358   1.293       .  A
O345       Eu348   2.470       .  S
O346        C355   1.292       .  A
O346       Eu352   2.469       .  S
O347        C356   1.292       .  A
O347       Eu352   2.466       .  S
Eu348       O366   2.348       .  S
Eu348       O354   2.347   1_655  S
Eu349       O353   2.364       .  S
Eu349       O364   2.375   1_655  S
Eu350       O364   2.366       .  S
Eu350       O354   2.352       .  S
Eu351       O353   2.360       .  S
Eu351       O366   2.353       .  S
Eu352       O353   2.356       .  S
Eu352       O364   2.373   1_655  S
Eu352       O366   2.349       .  S
Eu352       O354   2.343   1_655  S
C355       C1484   1.481       .  S
C356       C1448   1.482       .  S
C357        C656   1.484       .  S
C358        C620   1.484       .  S
C359        C638   1.484       .  S
C360        C676   1.493       .  S
C361        C710   1.467       .  S
C362        C692   1.470       .  S
H363        O364   0.966       .  S
H365        O366   0.965       .  S
C367        N368   1.362       .  A
C367        N372   1.371       .  A
C367       C1612   1.491       .  S
N368        C369   1.353       .  A
C369        N370   1.344       .  A
C369        C746   1.466       .  S
N370        C371   1.353       .  A
C371        N372   1.368       .  A
C371        C604   1.481       .  S
C373        N374   1.357       .  A
C373        N378   1.367       .  A
C373        C584   1.486       .  S
N374        C375   1.350       .  A
C375        N376   1.350       .  A
C375        C730   1.470       .  S
N376        C377   1.360       .  A
C377        N378   1.368       .  A
C377       C1594   1.486       .  S
C379        N380   1.373       .  A
C379        N384   1.360       .  A
C379        C566   1.498       .  S
N380        C381   1.371       .  A
C381        N382   1.355       .  A
C381       C1630   1.489       .  S
N382        C383   1.350       .  A
C383        N384   1.351       .  A
C383        C712   1.473       .  S
C385        N386   1.355       .  A
C385        N390   1.370       .  A
C385       C1648   1.487       .  S
N386        C387   1.348       .  A
C387        N388   1.354       .  A
C387        C694   1.471       .  S
N388        C389   1.360       .  A
C389        N390   1.372       .  A
C389        C548   1.492       .  S
C391        N392   1.371       .  A
C391        N396   1.361   1_556  A
C391        C674   1.495       .  S
N392        C393   1.370       .  A
C393        N394   1.355   1_556  A
C393        C890   1.485       .  S
N394        C395   1.349       .  A
C395        N396   1.355       .  A
C395        C530   1.472       .  S
O397        C408   1.291       .  A
O397       Eu433   2.465       .  S
O398        C409   1.292       .  A
O398       Eu432   2.465       .  S
O399        C410   1.292       .  A
O399       Eu405   2.460       .  S
O400        C411   1.289       .  A
O400       Eu405   2.451       .  S
O401        C411   1.292       .  A
O401       Eu435   2.453       .  S
O402        C410   1.289       .  A
O402       Eu434   2.449       .  S
O403        C409   1.296       .  A
O403       Eu405   2.491   1_556  S
O404        C408   1.296       .  A
O404       Eu405   2.488       .  S
Eu405       O415   2.357       .  S
Eu405       O407   2.350       .  S
Eu405       O406   2.367   1_554  S
Eu405       O413   2.364   1_554  S
O406       Eu435   2.364   1_556  S
O406       Eu432   2.365       .  S
O407       Eu433   2.355       .  S
O407       Eu434   2.352       .  S
C408        C818   1.489       .  S
C409        C764   1.492       .  S
C410        C532   1.470       .  S
C411        C478   1.467       .  S
H412        O413   0.966       .  S
O413       Eu434   2.367   1_556  S
O413       Eu432   2.368       .  S
H414        O415   0.963       .  S
O415       Eu433   2.352       .  S
O415       Eu435   2.362       .  S
O416        C439   1.296       .  A
O416       Eu432   2.491       .  S
O417        C440   1.294       .  A
O417       Eu433   2.479       .  S
O418        C441   1.297       .  A
O418       Eu434   2.490   1_556  S
O419        C442   1.299       .  A
O419       Eu435   2.509   1_556  S
O420        C443   1.294       .  A
O420       Eu435   2.475       .  S
O421        C444   1.296       .  A
O421       Eu434   2.480       .  S
O422        C445   1.286       .  A
O422       Eu436   2.433       .  S
O423        C446   1.290       .  A
O423       Eu436   2.445   1_556  S
O424        C445   1.294       .  A
O424       Eu434   2.465       .  S
O425        C446   1.290   1_554  A
O425       Eu435   2.461       .  S
O426        C441   1.291       .  A
O426       Eu432   2.460       .  S
O427        C444   1.291       .  A
O427       Eu433   2.463       .  S
O428        C443   1.291       .  A
O428       Eu433   2.459       .  S
O429        C442   1.290       .  A
O429       Eu432   2.455       .  S
O430        C439   1.290       .  A
O430       Eu436   2.452   1_556  S
O431        C440   1.291       .  A
O431       Eu436   2.462       .  S
Eu432       O450   2.350       .  S
Eu432       O438   2.355       .  S
Eu433       O437   2.365       .  S
Eu433       O448   2.349       .  S
Eu434       O448   2.357       .  S
Eu434       O438   2.349   1_554  S
Eu435       O437   2.368       .  S
Eu435       O450   2.349   1_554  S
Eu436       O437   2.351       .  S
Eu436       O448   2.349       .  S
Eu436       O450   2.344   1_554  S
Eu436       O438   2.353   1_554  S
C439        C782   1.483       .  S
C440        C802   1.484       .  S
C441        C568   1.489       .  S
C442        C550   1.491       .  S
C443        C602   1.481       .  S
C444        C586   1.486       .  S
C445        C494   1.470       .  S
C446        C514   1.474       .  S
H447        O448   0.965       .  S
H449        O450   0.965       .  S
C451        N452   1.360       .  A
C451        N456   1.373       .  A
C451        C872   1.496       .  S
N452        C453   1.349       .  A
C453        N454   1.347       .  A
C453        C512   1.470       .  S
N454        C455   1.354       .  A
C455        N456   1.372       .  A
C455        C622   1.489       .  S
C457        N458   1.371       .  A
C457        N462   1.360       .  A
C457        C854   1.491       .  S
N458        C459   1.369       .  A
C459        N460   1.355       .  A
C459        C658   1.487       .  S
N460        C461   1.347       .  A
C461        N462   1.351       .  A
C461        C496   1.466   1_556  S
C463        N464   1.369       .  A
C463        N468   1.358   1_556  A
C463        C640   1.486       .  S
N464        C465   1.369       .  A
C465        N466   1.357   1_556  A
C465        C838   1.487       .  S
N466        C467   1.351       .  A
C467        N468   1.349       .  A
C467        C476   1.471       .  S
C469        C477   1.480       .  S
C469        C470   1.401       .  A
C469        C474   1.406       .  A
C470        C471   1.394       .  A
C470        H479   1.084       .  S
C471        C472   1.409       .  A
C471        H480   1.080       .  S
C472        C475   1.485       .  S
C472        C473   1.404       .  A
C473        C474   1.396       .  A
C473        H481   1.084       .  S
C474        H482   1.081       .  S
C475        H483   1.088       .  S
C475        C476   1.345       .  D
C476        H484   1.083       .  S
C477        H485   1.088       .  S
C477        C478   1.345       .  D
C478        H486   1.084       .  S
C487        C495   1.478       .  S
C487        C488   1.401       .  A
C487        C492   1.405       .  A
C488        C489   1.397       .  A
C488        H497   1.084   1_554  S
C489        C490   1.411       .  A
C489        H498   1.079   1_554  S
C490        C493   1.483       .  S
C490        C491   1.402       .  A
C491        C492   1.392       .  A
C491        H499   1.084       .  S
C492        H500   1.082       .  S
C493        H501   1.087       .  S
C493        C494   1.342       .  D
C494        H502   1.083       .  S
C495        H503   1.087       .  S
C495        C496   1.343       .  D
C496        H504   1.086       .  S
C505        C513   1.481       .  S
C505        C506   1.403       .  A
C505        C510   1.407       .  A
C506        C507   1.394       .  A
C506        H515   1.083       .  S
C507        C508   1.404       .  A
C507        H516   1.082       .  S
C508        C511   1.477       .  S
C508        C509   1.402       .  A
C509        C510   1.397       .  A
C509        H517   1.084       .  S
C510        H518   1.081       .  S
C511        H519   1.087       .  S
C511        C512   1.346       .  D
C512        H520   1.085       .  S
C513        H521   1.088       .  S
C513        C514   1.346       .  D
C514        H522   1.084       .  S
C523        C531   1.488       .  S
C523        C524   1.403       .  A
C523        C528   1.409       .  A
C524        C525   1.399       .  A
C524        H533   1.083       .  S
C525        C526   1.409       .  A
C525        H534   1.082       .  S
C526        C529   1.484       .  S
C526        C527   1.400       .  A
C527        C528   1.394       .  A
C527        H535   1.084       .  S
C528        H536   1.080       .  S
C529        H537   1.087       .  S
C529        C530   1.344       .  D
C530        H538   1.084       .  S
C531        H539   1.087       .  S
C531        C532   1.347       .  D
C532        H540   1.083       .  S
C541        C549   1.503       .  S
C541        C542   1.409       .  A
C541        C546   1.410       .  A
C542        C543   1.410       .  A
C542        H551   1.083       .  S
C543        C544   1.407       .  A
C543        H552   1.083       .  S
C544        C547   1.488       .  S
C544        C545   1.402       .  A
C545        C546   1.400       .  A
C545        H553   1.083       .  S
C546        H554   1.082       .  S
C547        H555   1.087       .  S
C547        C548   1.353       .  D
C548        H556   1.086       .  S
C549        H557   1.086       .  S
C549        C550   1.350       .  D
C550        H558   1.087       .  S
C559        C567   1.500       .  S
C559        C560   1.402       .  A
C559        C564   1.414       .  A
C560        C561   1.398       .  A
C560        H569   1.084       .  S
C561        C562   1.407       .  A
C561        H570   1.084       .  S
C562        C565   1.497       .  S
C562        C563   1.408       .  A
C563        C564   1.410       .  A
C563        H571   1.081       .  S
C564        H572   1.081       .  S
C565        H573   1.086       .  S
C565        C566   1.359       .  D
C566        H574   1.084       .  S
C567        H575   1.087       .  S
C567        C568   1.348       .  D
C568        H576   1.084       .  S
C577        C585   1.494       .  S
C577        C578   1.401       .  A
C577        C582   1.413       .  A
C578        C579   1.394       .  A
C578        H587   1.084       .  S
C579        C580   1.405       .  A
C579        H588   1.084       .  S
C580        C583   1.490       .  S
C580        C581   1.408       .  A
C581        C582   1.408       .  A
C581        H589   1.081       .  S
C582        H590   1.081       .  S
C583        H591   1.088       .  S
C583        C584   1.353       .  D
C584        H592   1.084       .  S
C585        H593   1.087       .  S
C585        C586   1.346       .  D
C586        H594   1.085       .  S
C595        C603   1.487       .  S
C595        C596   1.405       .  A
C595        C600   1.407       .  A
C596        C597   1.394       .  A
C596        H605   1.084       .  S
C597        C598   1.404       .  A
C597        H606   1.082       .  S
C598        C601   1.489       .  S
C598        C599   1.407       .  A
C599        C600   1.406       .  A
C599        H607   1.083       .  S
C600        H608   1.081       .  S
C601        H609   1.086       .  S
C601        C602   1.351       .  D
C602        H610   1.086       .  S
C603        H611   1.089       .  S
C603        C604   1.352       .  D
C604        H612   1.084       .  S
C613        C621   1.490       .  S
C613        C614   1.406   1_556  A
C613        C618   1.406       .  A
C614        C615   1.397       .  A
C614        H623   1.084       .  S
C615        C616   1.406   1_554  A
C615        H624   1.081       .  S
C616        C619   1.496       .  S
C616        C617   1.409       .  A
C617        C618   1.407       .  A
C617        H625   1.083       .  S
C618        H626   1.082       .  S
C619        H627   1.087       .  S
C619        C620   1.352       .  D
C620        H628   1.085       .  S
C621        H629   1.088       .  S
C621        C622   1.356       .  D
C622        H630   1.085       .  S
C631        C639   1.489       .  S
C631        C632   1.407       .  A
C631        C636   1.404       .  A
C632        C633   1.408       .  A
C632        H641   1.082       .  S
C633        C634   1.413       .  A
C633        H642   1.081       .  S
C634        C637   1.493       .  S
C634        C635   1.401       .  A
C635        C636   1.393       .  A
C635        H643   1.084       .  S
C636        H644   1.084       .  S
C637        H645   1.087       .  S
C637        C638   1.347       .  D
C638        H646   1.084       .  S
C639        H647   1.088   1_556  S
C639        C640   1.352       .  D
C640        H648   1.085       .  S
C649        C657   1.488       .  S
C649        C650   1.406       .  A
C649        C654   1.405       .  A
C650        C651   1.406       .  A
C650        H659   1.082       .  S
C651        C652   1.413       .  A
C651        H660   1.081       .  S
C652        C655   1.495       .  S
C652        C653   1.402       .  A
C653        C654   1.397       .  A
C653        H661   1.084       .  S
C654        H662   1.084       .  S
C655        H663   1.087       .  S
C655        C656   1.347       .  D
C656        H664   1.084       .  S
C657        H665   1.088       .  S
C657        C658   1.354       .  D
C658        H666   1.085       .  S
C667        C675   1.504       .  S
C667        C668   1.403       .  A
C667        C672   1.415       .  A
C668        C669   1.397       .  A
C668        H677   1.083       .  S
C669        C670   1.404       .  A
C669        H678   1.084       .  S
C670        C673   1.496       .  S
C670        C671   1.409       .  A
C671        C672   1.412       .  A
C671        H679   1.082       .  S
C672        H680   1.080       .  S
C673        H681   1.087       .  S
C673        C674   1.355       .  D
C674        H682   1.085       .  S
C675        H683   1.087       .  S
C675        C676   1.349       .  D
C676        H684   1.084       .  S
C685        C693   1.486       .  S
C685        C686   1.403       .  A
C685        C690   1.409       .  A
C686        C687   1.395       .  A
C686        H695   1.084       .  S
C687        C688   1.407       .  A
C687        H696   1.081       .  S
C688        C691   1.484       .  S
C688        C689   1.402       .  A
C689        C690   1.397       .  A
C689        H697   1.083       .  S
C690        H698   1.081       .  S
C691        H699   1.087       .  S
C691        C692   1.346       .  D
C692        H700   1.084       .  S
C693        H701   1.087       .  S
C693        C694   1.343       .  D
C694        H702   1.083       .  S
C703        C711   1.481       .  S
C703        C704   1.403       .  A
C703        C708   1.406       .  A
C704        C705   1.395       .  A
C704        H713   1.084       .  S
C705        C706   1.406       .  A
C705        H714   1.080       .  S
C706        C709   1.482       .  S
C706        C707   1.404       .  A
C707        C708   1.396       .  A
C707        H715   1.084       .  S
C708        H716   1.082       .  S
C709        H717   1.089       .  S
C709        C710   1.347       .  D
C710        H718   1.083       .  S
C711        H719   1.087       .  S
C711        C712   1.347       .  D
C712        H720   1.085       .  S
C721        C729   1.481       .  S
C721        C722   1.405       .  A
C721        C726   1.405       .  A
C722        C723   1.399       .  A
C722        H731   1.083       .  S
C723        C724   1.406       .  A
C723        H732   1.082       .  S
C724        C727   1.476       .  S
C724        C725   1.401       .  A
C725        C726   1.391       .  A
C725        H733   1.084       .  S
C726        H734   1.081       .  S
C727        H735   1.087       .  S
C727        C728   1.344       .  D
C728        H736   1.085       .  S
C729        H737   1.087       .  S
C729        C730   1.346       .  D
C730        H738   1.084       .  S
C739        C747   1.478       .  S
C739        C740   1.399       .  A
C739        C744   1.408       .  A
C740        C741   1.394       .  A
C740        H749   1.084       .  S
C741        C742   1.409       .  A
C741        H750   1.081       .  S
C742        C745   1.480       .  S
C742        C743   1.400       .  A
C743        C744   1.395       .  A
C743        H751   1.083       .  S
C744        H752   1.082       .  S
C745        H753   1.087       .  S
C745        C746   1.340       .  D
C746        H754   1.085       .  S
C747        H755   1.087       .  S
C747        C748   1.340       .  D
C748        H756   1.085       .  S
C757        C765   1.496       .  S
C757        C758   1.409       .  A
C757        C762   1.405       .  A
C758        C759   1.401       .  A
C758        H767   1.084       .  S
C759        C760   1.407       .  A
C759        H768   1.081       .  S
C760        C763   1.501       .  S
C760        C761   1.410       .  A
C761        C762   1.406       .  A
C761        H769   1.083       .  S
C762        H770   1.081       .  S
C763        H771   1.087       .  S
C763        C764   1.356       .  D
C764        H772   1.084       .  S
C765        H773   1.086       .  S
C765        C766   1.360       .  D
C766        H774   1.084       .  S
C775        C783   1.494       .  S
C775        C776   1.406       .  A
C775        C780   1.409       .  A
C776        C777   1.392       .  A
C776        H785   1.084       .  S
C777        C778   1.403       .  A
C777        H786   1.083       .  S
C778        C781   1.495       .  S
C778        C779   1.409       .  A
C779        C780   1.413       .  A
C779        H787   1.083       .  S
C780        H788   1.082       .  S
C781        H789   1.086       .  S
C781        C782   1.349       .  D
C782        H790   1.087       .  S
C783        H791   1.086       .  S
C783        C784   1.358       .  D
C784        H792   1.085       .  S
C793        C801   1.496       .  S
C793        C794   1.407       .  A
C793        C798   1.408       .  A
C794        C795   1.405       .  A
C794        H803   1.083       .  S
C795        C796   1.408       .  A
C795        H804   1.082       .  S
C796        C799   1.490       .  S
C796        C797   1.404       .  A
C797        C798   1.397       .  A
C797        H805   1.084       .  S
C798        H806   1.081       .  S
C799        H807   1.087       .  S
C799        C800   1.350       .  D
C800        H808   1.085       .  S
C801        H809   1.086       .  S
C801        C802   1.350       .  D
C802        H810   1.085       .  S
C811        C819   1.493       .  S
C811        C812   1.409       .  A
C811        C816   1.404       .  A
C812        C813   1.411       .  A
C812        H821   1.082       .  S
C813        C814   1.412       .  A
C813        H822   1.082       .  S
C814        C817   1.494       .  S
C814        C815   1.401       .  A
C815        C816   1.396       .  A
C815        H823   1.084       .  S
C816        H824   1.084       .  S
C817        H825   1.087       .  S
C817        C818   1.346       .  D
C818        H826   1.086       .  S
C819        H827   1.088       .  S
C819        C820   1.352       .  D
C820        H828   1.085       .  S
C829        C837   1.487       .  S
C829        C830   1.405       .  A
C829        C834   1.405       .  A
C830        C831   1.405       .  A
C830        H839   1.082       .  S
C831        C832   1.414       .  A
C831        H840   1.081       .  S
C832        C835   1.495       .  S
C832        C833   1.401       .  A
C833        C834   1.397       .  A
C833        H841   1.083       .  S
C834        H842   1.084       .  S
C835        H843   1.087       .  S
C835        C836   1.345       .  D
C836        H844   1.085       .  S
C837        H845   1.088   1_556  S
C837        C838   1.354       .  D
C838        H846   1.085       .  S
C847        C855   1.492       .  S
C847        C848   1.407       .  A
C847        C852   1.404   1_556  A
C848        C849   1.408       .  A
C848        H857   1.083       .  S
C849        C850   1.409       .  A
C849        H858   1.081       .  S
C850        C853   1.493       .  S
C850        C851   1.406   1_556  A
C851        C852   1.395       .  A
C851        H859   1.084       .  S
C852        H860   1.082       .  S
C853        H861   1.087   1_556  S
C853        C854   1.355       .  D
C854        H862   1.084       .  S
C855        H863   1.086       .  S
C855        C856   1.350       .  D
C856        H864   1.086       .  S
C865        C873   1.497       .  S
C865        C866   1.400       .  A
C865        C870   1.414       .  A
C866        C867   1.395       .  A
C866        H875   1.084       .  S
C867        C868   1.406       .  A
C867        H876   1.084       .  S
C868        C871   1.497       .  S
C868        C869   1.409       .  A
C869        C870   1.412       .  A
C869        H877   1.081       .  S
C870        H878   1.082       .  S
C871        H879   1.087       .  S
C871        C872   1.357       .  D
C872        H880   1.084       .  S
C873        H881   1.087       .  S
C873        C874   1.346       .  D
C874        H882   1.085       .  S
C883        C891   1.499       .  S
C883        C884   1.407       .  A
C883        C888   1.409       .  A
C884        C885   1.407       .  A
C884        H893   1.083       .  S
C885        C886   1.407       .  A
C885        H894   1.083       .  S
C886        C889   1.487       .  S
C886        C887   1.403       .  A
C887        C888   1.400       .  A
C887        H895   1.084   1_556  S
C888        H896   1.082   1_556  S
C889        H897   1.088   1_556  S
C889        C890   1.351       .  D
C890        H898   1.086       .  S
C891        H899   1.086       .  S
C891        C892   1.347       .  D
C892        H900   1.086       .  S
C901        C909   1.474       .  S
C901        C902   1.400       .  A
C901        C906   1.406       .  A
C902        C903   1.391       .  A
C902        H911   1.084       .  S
C903        C904   1.406       .  A
C903        H912   1.082       .  S
C904        C907   1.475       .  S
C904        C905   1.401       .  A
C905        C906   1.397       .  A
C905        H913   1.083       .  S
C906        H914   1.083       .  S
C907        H915   1.088       .  S
C907        C908   1.342       .  D
C908        H916   1.085       .  S
C909        H917   1.087       .  S
C909        C910   1.343       .  D
C910        H918   1.086       .  S
C919        C927   1.474       .  S
C919        C920   1.400       .  A
C919        C924   1.406       .  A
C920        C921   1.393       .  A
C920        H929   1.084       .  S
C921        C922   1.407       .  A
C921        H930   1.081       .  S
C922        C925   1.476       .  S
C922        C923   1.401       .  A
C923        C924   1.394       .  A
C923        H931   1.083       .  S
C924        H932   1.082       .  S
C925        H933   1.087       .  S
C925        C926   1.341       .  D
C926        H934   1.085       .  S
C927        H935   1.087       .  S
C927        C928   1.343       .  D
C928        H936   1.086       .  S
C937        C945   1.486       .  S
C937        C938   1.403       .  A
C937        C942   1.409       .  A
C938        C939   1.399       .  A
C938        H947   1.083       .  S
C939        C940   1.408       .  A
C939        H948   1.082       .  S
C940        C943   1.482       .  S
C940        C941   1.400       .  A
C941        C942   1.396       .  A
C941        H949   1.084       .  S
C942        H950   1.081       .  S
C943        H951   1.087       .  S
C943        C944   1.343       .  D
C944        H952   1.086       .  S
C945        H953   1.087       .  S
C945        C946   1.342       .  D
C946        H954   1.085       .  S
C955        C963   1.482       .  S
C955        C956   1.400       .  A
C955        C960   1.409       .  A
C956        C957   1.393       .  A
C956        H965   1.084       .  S
C957        C958   1.407       .  A
C957        H966   1.081       .  S
C958        C961   1.482       .  S
C958        C959   1.402       .  A
C959        C960   1.398       .  A
C959        H967   1.084       .  S
C960        H968   1.081       .  S
C961        H969   1.087       .  S
C961        C962   1.342       .  D
C962        H970   1.085       .  S
C963        H971   1.087       .  S
C963        C964   1.342       .  D
C964        H972   1.084       .  S
C973        C981   1.487       .  S
C973        C974   1.405   1_545  A
C973        C978   1.404       .  A
C974        C975   1.406       .  A
C974        H983   1.083       .  S
C975        C976   1.409   1_565  A
C975        H984   1.081       .  S
C976        C979   1.489       .  S
C976        C977   1.405       .  A
C977        C978   1.394       .  A
C977        H985   1.084       .  S
C978        H986   1.083       .  S
C979        H987   1.088       .  S
C979        C980   1.352       .  D
C980        H988   1.084   1_545  S
C981        H989   1.086   1_545  S
C981        C982   1.346       .  D
C982        H990   1.087       .  S
C991        C999   1.488       .  S
C991        C992   1.404       .  A
C991        C996   1.407       .  A
C992        C993   1.397       .  A
C992       H1001   1.084       .  S
C993        C994   1.406       .  A
C993       H1002   1.081       .  S
C994        C997   1.495       .  S
C994        C995   1.409       .  A
C995        C996   1.406       .  A
C995       H1003   1.083       .  S
C996       H1004   1.082   1_545  S
C997       H1005   1.087       .  S
C997        C998   1.353       .  D
C998       H1006   1.084       .  S
C999       H1007   1.089       .  S
C999       C1000   1.351       .  D
C1000      H1008   1.085       .  S
C1009      C1017   1.498       .  S
C1009      C1010   1.408       .  A
C1009      C1014   1.408   1_565  A
C1010      C1011   1.396       .  A
C1010      H1019   1.084       .  S
C1011      C1012   1.403       .  A
C1011      H1020   1.083       .  S
C1012      C1015   1.499       .  S
C1012      C1013   1.411   1_565  A
C1013      C1014   1.413       .  A
C1013      H1021   1.083       .  S
C1014      H1022   1.082       .  S
C1015      H1023   1.086   1_565  S
C1015      C1016   1.354       .  D
C1016      H1024   1.086       .  S
C1017      H1025   1.086       .  S
C1017      C1018   1.361       .  D
C1018      H1026   1.085   1_565  S
C1027      C1035   1.490       .  S
C1027      C1028   1.406       .  A
C1027      C1032   1.406       .  A
C1028      C1029   1.407       .  A
C1028      H1037   1.083       .  S
C1029      C1030   1.407       .  A
C1029      H1038   1.082       .  S
C1030      C1033   1.484       .  S
C1030      C1031   1.402       .  A
C1031      C1032   1.394       .  A
C1031      H1039   1.084       .  S
C1032      H1040   1.083       .  S
C1033      H1041   1.088       .  S
C1033      C1034   1.352       .  D
C1034      H1042   1.085       .  S
C1035      H1043   1.086       .  S
C1035      C1036   1.347       .  D
C1036      H1044   1.087       .  S
C1045      C1053   1.484       .  S
C1045      C1046   1.403       .  A
C1045      C1050   1.408       .  A
C1046      C1047   1.390       .  A
C1046      H1055   1.084       .  S
C1047      C1048   1.403       .  A
C1047      H1056   1.083       .  S
C1048      C1051   1.483       .  S
C1048      C1049   1.405       .  A
C1049      C1050   1.405       .  A
C1049      H1057   1.083       .  S
C1050      H1058   1.081       .  S
C1051      H1059   1.086       .  S
C1051      C1052   1.346       .  D
C1052      H1060   1.087       .  S
C1053      H1061   1.088       .  S
C1053      C1054   1.350       .  D
C1054      H1062   1.084       .  S
C1063      C1071   1.496       .  S
C1063      C1064   1.408       .  A
C1063      C1068   1.407       .  A
C1064      C1065   1.405       .  A
C1064      H1073   1.083       .  S
C1065      C1066   1.405       .  A
C1065      H1074   1.082       .  S
C1066      C1069   1.488       .  S
C1066      C1067   1.405       .  A
C1067      C1068   1.399       .  A
C1067      H1075   1.084       .  S
C1068      H1076   1.081       .  S
C1069      H1077   1.088       .  S
C1069      C1070   1.352       .  D
C1070      H1078   1.085       .  S
C1071      H1079   1.087       .  S
C1071      C1072   1.353       .  D
C1072      H1080   1.084       .  S
C1081      C1089   1.492       .  S
C1081      C1082   1.406       .  A
C1081      C1086   1.408       .  A
C1082      C1083   1.397       .  A
C1082      H1091   1.084       .  S
C1083      C1084   1.405       .  A
C1083      H1092   1.082       .  S
C1084      C1087   1.496       .  S
C1084      C1085   1.408       .  A
C1085      C1086   1.409       .  A
C1085      H1093   1.083       .  S
C1086      H1094   1.082       .  S
C1087      H1095   1.086       .  S
C1087      C1088   1.352       .  D
C1088      H1096   1.086       .  S
C1089      H1097   1.088       .  S
C1089      C1090   1.356       .  D
C1090      H1098   1.085       .  S
C1099      C1107   1.483       .  S
C1099      C1100   1.403       .  A
C1099      C1104   1.409       .  A
C1100      C1101   1.393       .  A
C1100      H1109   1.083       .  S
C1101      C1102   1.404       .  A
C1101      H1110   1.081       .  S
C1102      C1105   1.479       .  S
C1102      C1103   1.403       .  A
C1103      C1104   1.397       .  A
C1103      H1111   1.084       .  S
C1104      H1112   1.080       .  S
C1105      H1113   1.087       .  S
C1105      C1106   1.347       .  D
C1106      H1114   1.085       .  S
C1107      H1115   1.087       .  S
C1107      C1108   1.344       .  D
C1108      H1116   1.083       .  S
C1117      C1125   1.474       .  S
C1117      C1118   1.400       .  A
C1117      C1122   1.406       .  A
C1118      C1119   1.396       .  A
C1118      H1127   1.084       .  S
C1119      C1120   1.409       .  A
C1119      H1128   1.081       .  S
C1120      C1123   1.479       .  S
C1120      C1121   1.401       .  A
C1121      C1122   1.391       .  A
C1121      H1129   1.084       .  S
C1122      H1130   1.082       .  S
C1123      H1131   1.087       .  S
C1123      C1124   1.341       .  D
C1124      H1132   1.085       .  S
C1125      H1133   1.088       .  S
C1125      C1126   1.342       .  D
C1126      H1134   1.086       .  S
C1135      C1143   1.482       .  S
C1135      C1136   1.403       .  A
C1135      C1140   1.407       .  A
C1136      C1137   1.396       .  A
C1136      H1145   1.083       .  S
C1137      C1138   1.406       .  A
C1137      H1146   1.081       .  S
C1138      C1141   1.479       .  S
C1138      C1139   1.401       .  A
C1139      C1140   1.393       .  A
C1139      H1147   1.083       .  S
C1140      H1148   1.081       .  S
C1141      H1149   1.088       .  S
C1141      C1142   1.346       .  D
C1142      H1150   1.084       .  S
C1143      H1151   1.087       .  S
C1143      C1144   1.344       .  D
C1144      H1152   1.083       .  S
C1153      C1161   1.492   1_565  S
C1153      C1154   1.408   1_565  A
C1153      C1158   1.404       .  A
C1154      C1155   1.409       .  A
C1154      H1163   1.083       .  S
C1155      C1156   1.409   1_545  A
C1155      H1164   1.081       .  S
C1156      C1159   1.490       .  S
C1156      C1157   1.404       .  A
C1157      C1158   1.393       .  A
C1157      H1165   1.084       .  S
C1158      H1166   1.083       .  S
C1159      H1167   1.088       .  S
C1159      C1160   1.351       .  D
C1160      H1168   1.084   1_565  S
C1161      H1169   1.086       .  S
C1161      C1162   1.350   1_545  D
C1162      H1170   1.087       .  S
C1171      C1179   1.480       .  S
C1171      C1172   1.401       .  A
C1171      C1176   1.408       .  A
C1172      C1173   1.395       .  A
C1172      H1181   1.084       .  S
C1173      C1174   1.407       .  A
C1173      H1182   1.083       .  S
C1174      C1177   1.480       .  S
C1174      C1175   1.400       .  A
C1175      C1176   1.397       .  A
C1175      H1183   1.083   1_565  S
C1176      H1184   1.082   1_565  S
C1177      H1185   1.087       .  S
C1177      C1178   1.342       .  D
C1178      H1186   1.087       .  S
C1179      H1187   1.087       .  S
C1179      C1180   1.342       .  D
C1180      H1188   1.085       .  S
C1189      C1197   1.489       .  S
C1189      C1190   1.399       .  A
C1189      C1194   1.411       .  A
C1190      C1191   1.393       .  A
C1190      H1199   1.082       .  S
C1191      C1192   1.405       .  A
C1191      H1200   1.084       .  S
C1192      C1195   1.489       .  S
C1192      C1193   1.408       .  A
C1193      C1194   1.407       .  A
C1193      H1201   1.081       .  S
C1194      H1202   1.081       .  S
C1195      H1203   1.087       .  S
C1195      C1196   1.352       .  D
C1196      H1204   1.084       .  S
C1197      H1205   1.087       .  S
C1197      C1198   1.345       .  D
C1198      H1206   1.085       .  S
C1207      C1215   1.482       .  S
C1207      C1208   1.405       .  A
C1207      C1212   1.402       .  A
C1208      C1209   1.405       .  A
C1208      H1217   1.083       .  S
C1209      C1210   1.407       .  A
C1209      H1218   1.081       .  S
C1210      C1213   1.488       .  S
C1210      C1211   1.407       .  A
C1211      C1212   1.393       .  A
C1211      H1219   1.084       .  S
C1212      H1220   1.083       .  S
C1213      H1221   1.088       .  S
C1213      C1214   1.354       .  D
C1214      H1222   1.084       .  S
C1215      H1223   1.087       .  S
C1215      C1216   1.348       .  D
C1216      H1224   1.087       .  S
C1225      C1233   1.495       .  S
C1225      C1226   1.407       .  A
C1225      C1230   1.407       .  A
C1226      C1227   1.408       .  A
C1226      H1235   1.083       .  S
C1227      C1228   1.409       .  A
C1227      H1236   1.081       .  S
C1228      C1231   1.491       .  S
C1228      C1229   1.404       .  A
C1229      C1230   1.392       .  A
C1229      H1237   1.084       .  S
C1230      H1238   1.082       .  S
C1231      H1239   1.087       .  S
C1231      C1232   1.354       .  D
C1232      H1240   1.084       .  S
C1233      H1241   1.086       .  S
C1233      C1234   1.347       .  D
C1234      H1242   1.086       .  S
C1243      C1251   1.506       .  S
C1243      C1244   1.411       .  A
C1243      C1248   1.408       .  A
C1244      C1245   1.412       .  A
C1244      H1253   1.083       .  S
C1245      C1246   1.407       .  A
C1245      H1254   1.082       .  S
C1246      C1249   1.498       .  S
C1246      C1247   1.407       .  A
C1247      C1248   1.400       .  A
C1247      H1255   1.084       .  S
C1248      H1256   1.081       .  S
C1249      H1257   1.087       .  S
C1249      C1250   1.360       .  D
C1250      H1258   1.085       .  S
C1251      H1259   1.086       .  S
C1251      C1252   1.356       .  D
C1252      H1260   1.084       .  S
C1261      C1269   1.496       .  S
C1261      C1262   1.408       .  A
C1261      C1266   1.408   1_565  A
C1262      C1263   1.399       .  A
C1262      H1271   1.084       .  S
C1263      C1264   1.406       .  A
C1263      H1272   1.082       .  S
C1264      C1267   1.494       .  S
C1264      C1265   1.407   1_565  A
C1265      C1266   1.406       .  A
C1265      H1273   1.083       .  S
C1266      H1274   1.080       .  S
C1267      H1275   1.087   1_565  S
C1267      C1268   1.350       .  D
C1268      H1276   1.085       .  S
C1269      H1277   1.087       .  S
C1269      C1270   1.357       .  D
C1270      H1278   1.083   1_565  S
C1279      C1287   1.497       .  S
C1279      C1280   1.407       .  A
C1279      C1284   1.407       .  A
C1280      C1281   1.412       .  A
C1280      H1289   1.082       .  S
C1281      C1282   1.415       .  A
C1281      H1290   1.080       .  S
C1282      C1285   1.504       .  S
C1282      C1283   1.403       .  A
C1283      C1284   1.398       .  A
C1283      H1291   1.084       .  S
C1284      H1292   1.084       .  S
C1285      H1293   1.087       .  S
C1285      C1286   1.350       .  D
C1286      H1294   1.084       .  S
C1287      H1295   1.088       .  S
C1287      C1288   1.359       .  D
C1288      H1296   1.085       .  S
C1297      C1305   1.501       .  S
C1297      C1298   1.400       .  A
C1297      C1302   1.417   1_545  A
C1298      C1299   1.395       .  A
C1298      H1307   1.083       .  S
C1299      C1300   1.405       .  A
C1299      H1308   1.084       .  S
C1300      C1303   1.494       .  S
C1300      C1301   1.407   1_545  A
C1301      C1302   1.411       .  A
C1301      H1309   1.082       .  S
C1302      H1310   1.080       .  S
C1303      H1311   1.087       .  S
C1303      C1304   1.356   1_545  D
C1304      H1312   1.085       .  S
C1305      H1313   1.087       .  S
C1305      C1306   1.344       .  D
C1306      H1314   1.084   1_545  S
C1315      C1323   1.488   1_545  S
C1315      C1316   1.401       .  A
C1315      C1320   1.410   1_545  A
C1316      C1317   1.395       .  A
C1316      H1325   1.084       .  S
C1317      C1318   1.404       .  A
C1317      H1326   1.084       .  S
C1318      C1321   1.486       .  S
C1318      C1319   1.407   1_545  A
C1319      C1320   1.406       .  A
C1319      H1327   1.082       .  S
C1320      H1328   1.082       .  S
C1321      H1329   1.088       .  S
C1321      C1322   1.350   1_545  D
C1322      H1330   1.085       .  S
C1323      H1331   1.088   1_565  S
C1323      C1324   1.344       .  D
C1324      H1332   1.086       .  S
C1333      C1341   1.479       .  S
C1333      C1334   1.403       .  A
C1333      C1338   1.407       .  A
C1334      C1335   1.393       .  A
C1334      H1343   1.084       .  S
C1335      C1336   1.404       .  A
C1335      H1344   1.082       .  S
C1336      C1339   1.477       .  S
C1336      C1337   1.402       .  A
C1337      C1338   1.396       .  A
C1337      H1345   1.084       .  S
C1338      H1346   1.081       .  S
C1339      H1347   1.087       .  S
C1339      C1340   1.344       .  D
C1340      H1348   1.085       .  S
C1341      H1349   1.087       .  S
C1341      C1342   1.344       .  D
C1342      H1350   1.084       .  S
C1351      C1359   1.480       .  S
C1351      C1352   1.402       .  A
C1351      C1356   1.410       .  A
C1352      C1353   1.394       .  A
C1352      H1361   1.084       .  S
C1353      C1354   1.406       .  A
C1353      H1362   1.082       .  S
C1354      C1357   1.474       .  S
C1354      C1355   1.398       .  A
C1355      C1356   1.392       .  A
C1355      H1363   1.084       .  S
C1356      H1364   1.080       .  S
C1357      H1365   1.087       .  S
C1357      C1358   1.342       .  D
C1358      H1366   1.085       .  S
C1359      H1367   1.087       .  S
C1359      C1360   1.341       .  D
C1360      H1368   1.083       .  S
C1369      C1377   1.479       .  S
C1369      C1370   1.401       .  A
C1369      C1374   1.407       .  A
C1370      C1371   1.395       .  A
C1370      H1379   1.084       .  S
C1371      C1372   1.407       .  A
C1371      H1380   1.082       .  S
C1372      C1375   1.478       .  S
C1372      C1373   1.401       .  A
C1373      C1374   1.395       .  A
C1373      H1381   1.084       .  S
C1374      H1382   1.082       .  S
C1375      H1383   1.088       .  S
C1375      C1376   1.343       .  D
C1376      H1384   1.085       .  S
C1377      H1385   1.087       .  S
C1377      C1378   1.344       .  D
C1378      H1386   1.085       .  S
C1387      C1395   1.478       .  S
C1387      C1388   1.403       .  A
C1387      C1392   1.405       .  A
C1388      C1389   1.395       .  A
C1388      H1397   1.084       .  S
C1389      C1390   1.406       .  A
C1389      H1398   1.080       .  S
C1390      C1393   1.478       .  S
C1390      C1391   1.403       .  A
C1391      C1392   1.392       .  A
C1391      H1399   1.084       .  S
C1392      H1400   1.081       .  S
C1393      H1401   1.088       .  S
C1393      C1394   1.346       .  D
C1394      H1402   1.083       .  S
C1395      H1403   1.087       .  S
C1395      C1396   1.345       .  D
C1396      H1404   1.084       .  S
C1405      C1413   1.487       .  S
C1405      C1406   1.403       .  A
C1405      C1410   1.407   1_455  A
C1406      C1407   1.394       .  A
C1406      H1415   1.084       .  S
C1407      C1408   1.405       .  A
C1407      H1416   1.082       .  S
C1408      C1411   1.493       .  S
C1408      C1409   1.409   1_455  A
C1409      C1410   1.409       .  A
C1409      H1417   1.083       .  S
C1410      H1418   1.082       .  S
C1411      H1419   1.087   1_455  S
C1411      C1412   1.352       .  D
C1412      H1420   1.086       .  S
C1413      H1421   1.088       .  S
C1413      C1414   1.351   1_455  D
C1414      H1422   1.085       .  S
C1423      C1431   1.493       .  S
C1423      C1424   1.405       .  A
C1423      C1428   1.408   1_655  A
C1424      C1425   1.395       .  A
C1424      H1433   1.084       .  S
C1425      C1426   1.406   1_655  A
C1425      H1434   1.081       .  S
C1426      C1429   1.494       .  S
C1426      C1427   1.407       .  A
C1427      C1428   1.407       .  A
C1427      H1435   1.083       .  S
C1428      H1436   1.081       .  S
C1429      H1437   1.087       .  S
C1429      C1430   1.350       .  D
C1430      H1438   1.085       .  S
C1431      H1439   1.086       .  S
C1431      C1432   1.355       .  D
C1432      H1440   1.084       .  S
C1441      C1449   1.489       .  S
C1441      C1442   1.404       .  A
C1441      C1446   1.406       .  A
C1442      C1443   1.396       .  A
C1442      H1451   1.084       .  S
C1443      C1444   1.408       .  A
C1443      H1452   1.080       .  S
C1444      C1447   1.496       .  S
C1444      C1445   1.408       .  A
C1445      C1446   1.405       .  A
C1445      H1453   1.083       .  S
C1446      H1454   1.082       .  S
C1447      H1455   1.087       .  S
C1447      C1448   1.350       .  D
C1448      H1456   1.083       .  S
C1449      H1457   1.087   1_655  S
C1449      C1450   1.352       .  D
C1450      H1458   1.085       .  S
C1459      C1467   1.488       .  S
C1459      C1460   1.406       .  A
C1459      C1464   1.404       .  A
C1460      C1461   1.399       .  A
C1460      H1469   1.084       .  S
C1461      C1462   1.406       .  A
C1461      H1470   1.080       .  S
C1462      C1465   1.498       .  S
C1462      C1463   1.410       .  A
C1463      C1464   1.405       .  A
C1463      H1471   1.083       .  S
C1464      H1472   1.082       .  S
C1465      H1473   1.087       .  S
C1465      C1466   1.358       .  D
C1466      H1474   1.083       .  S
C1467      H1475   1.089       .  S
C1467      C1468   1.353       .  D
C1468      H1476   1.085       .  S
C1477      C1485   1.490       .  S
C1477      C1478   1.406       .  A
C1477      C1482   1.408       .  A
C1478      C1479   1.396       .  A
C1478      H1487   1.084       .  S
C1479      C1480   1.404       .  A
C1479      H1488   1.083       .  S
C1480      C1483   1.489       .  S
C1480      C1481   1.406       .  A
C1481      C1482   1.406       .  A
C1481      H1489   1.083   1_655  S
C1482      H1490   1.081   1_655  S
C1483      H1491   1.087       .  S
C1483      C1484   1.350       .  D
C1484      H1492   1.087       .  S
C1485      H1493   1.088       .  S
C1485      C1486   1.354       .  D
C1486      H1494   1.084       .  S
C1495      C1503   1.480       .  S
C1495      C1496   1.400       .  A
C1495      C1500   1.407   1_655  A
C1496      C1497   1.395       .  A
C1496      H1505   1.084       .  S
C1497      C1498   1.408   1_655  A
C1497      H1506   1.082       .  S
C1498      C1501   1.496       .  S
C1498      C1499   1.408       .  A
C1499      C1500   1.409       .  A
C1499      H1507   1.083       .  S
C1500      H1508   1.083       .  S
C1501      H1509   1.086       .  S
C1501      C1502   1.346   1_455  D
C1502      H1510   1.087       .  S
C1503      H1511   1.088       .  S
C1503      C1504   1.348       .  D
C1504      H1512   1.086   1_655  S
C1513      C1521   1.485       .  S
C1513      C1514   1.405       .  A
C1513      C1518   1.407       .  A
C1514      C1515   1.394       .  A
C1514      H1523   1.084       .  S
C1515      C1516   1.403       .  A
C1515      H1524   1.083       .  S
C1516      C1519   1.485       .  S
C1516      C1517   1.406       .  A
C1517      C1518   1.404       .  A
C1517      H1525   1.083       .  S
C1518      H1526   1.081       .  S
C1519      H1527   1.087       .  S
C1519      C1520   1.349       .  D
C1520      H1528   1.086       .  S
C1521      H1529   1.088       .  S
C1521      C1522   1.350       .  D
C1522      H1530   1.084       .  S
C1531      C1539   1.486       .  S
C1531      C1532   1.404       .  A
C1531      C1536   1.405       .  A
C1532      C1533   1.396       .  A
C1532      H1541   1.084       .  S
C1533      C1534   1.406       .  A
C1533      H1542   1.081       .  S
C1534      C1537   1.494       .  S
C1534      C1535   1.409       .  A
C1535      C1536   1.405       .  A
C1535      H1543   1.083       .  S
C1536      H1544   1.082       .  S
C1537      H1545   1.087       .  S
C1537      C1538   1.352       .  D
C1538      H1546   1.084       .  S
C1539      H1547   1.088       .  S
C1539      C1540   1.352       .  D
C1540      H1548   1.085       .  S
C1549      C1557   1.496       .  S
C1549      C1550   1.409       .  A
C1549      C1554   1.405       .  A
C1550      C1551   1.414       .  A
C1550      H1559   1.082       .  S
C1551      C1552   1.415       .  A
C1551      H1560   1.081       .  S
C1552      C1555   1.502       .  S
C1552      C1553   1.403       .  A
C1553      C1554   1.397       .  A
C1553      H1561   1.084       .  S
C1554      H1562   1.084       .  S
C1555      H1563   1.087       .  S
C1555      C1556   1.350       .  D
C1556      H1564   1.084       .  S
C1557      H1565   1.088       .  S
C1557      C1558   1.359       .  D
C1558      H1566   1.085       .  S
C1567      C1575   1.492       .  S
C1567      C1568   1.409       .  A
C1567      C1572   1.405       .  A
C1568      C1569   1.411       .  A
C1568      H1577   1.081       .  S
C1569      C1570   1.414       .  A
C1569      H1578   1.081       .  S
C1570      C1573   1.496       .  S
C1570      C1571   1.401       .  A
C1571      C1572   1.393       .  A
C1571      H1579   1.084       .  S
C1572      H1580   1.084       .  S
C1573      H1581   1.087       .  S
C1573      C1574   1.349       .  D
C1574      H1582   1.084       .  S
C1575      H1583   1.087       .  S
C1575      C1576   1.355       .  D
C1576      H1584   1.084       .  S
C1585      C1593   1.484       .  S
C1585      C1586   1.403       .  A
C1585      C1590   1.407       .  A
C1586      C1587   1.393       .  A
C1586      H1595   1.084       .  S
C1587      C1588   1.405       .  A
C1587      H1596   1.083       .  S
C1588      C1591   1.488       .  S
C1588      C1589   1.406       .  A
C1589      C1590   1.406       .  A
C1589      H1597   1.083       .  S
C1590      H1598   1.082       .  S
C1591      H1599   1.086       .  S
C1591      C1592   1.348       .  D
C1592      H1600   1.086       .  S
C1593      H1601   1.087       .  S
C1593      C1594   1.351       .  D
C1594      H1602   1.085       .  S
C1603      C1611   1.490       .  S
C1603      C1604   1.408       .  A
C1603      C1608   1.404       .  A
C1604      C1605   1.410       .  A
C1604      H1613   1.082       .  S
C1605      C1606   1.412       .  A
C1605      H1614   1.082       .  S
C1606      C1609   1.495       .  S
C1606      C1607   1.402       .  A
C1607      C1608   1.395       .  A
C1607      H1615   1.084       .  S
C1608      H1616   1.084       .  S
C1609      H1617   1.087       .  S
C1609      C1610   1.347       .  D
C1610      H1618   1.085       .  S
C1611      H1619   1.087       .  S
C1611      C1612   1.353       .  D
C1612      H1620   1.085       .  S
C1621      C1629   1.490       .  S
C1621      C1622   1.407       .  A
C1621      C1626   1.403       .  A
C1622      C1623   1.411       .  A
C1622      H1631   1.083       .  S
C1623      C1624   1.415       .  A
C1623      H1632   1.080       .  S
C1624      C1627   1.502       .  S
C1624      C1625   1.403       .  A
C1625      C1626   1.396       .  A
C1625      H1633   1.083       .  S
C1626      H1634   1.084       .  S
C1627      H1635   1.087       .  S
C1627      C1628   1.350       .  D
C1628      H1636   1.083       .  S
C1629      H1637   1.089       .  S
C1629      C1630   1.354       .  D
C1630      H1638   1.085       .  S
C1639      C1647   1.487       .  S
C1639      C1640   1.404       .  A
C1639      C1644   1.405       .  A
C1640      C1641   1.396       .  A
C1640      H1649   1.084       .  S
C1641      C1642   1.408       .  A
C1641      H1650   1.080       .  S
C1642      C1645   1.497       .  S
C1642      C1643   1.409       .  A
C1643      C1644   1.407       .  A
C1643      H1651   1.083       .  S
C1644      H1652   1.082       .  S
C1645      H1653   1.087       .  S
C1645      C1646   1.352       .  D
C1646      H1654   1.083       .  S
C1647      H1655   1.088       .  S
C1647      C1648   1.354       .  D
C1648      H1656   1.085       .  S
C1657      C1665   1.483       .  S
C1657      C1658   1.400   1_655  A
C1657      C1662   1.408       .  A
C1658      C1659   1.396       .  A
C1658      H1667   1.084       .  S
C1659      C1660   1.410   1_455  A
C1659      H1668   1.081       .  S
C1660      C1663   1.489       .  S
C1660      C1661   1.403       .  A
C1661      C1662   1.400       .  A
C1661      H1669   1.083       .  S
C1662      H1670   1.082       .  S
C1663      H1671   1.087       .  S
C1663      C1664   1.344       .  D
C1664      H1672   1.085       .  S
C1665      H1673   1.087       .  S
C1665      C1666   1.343       .  D
C1666      H1674   1.085       .  S
C1675      C1683   1.480       .  S
C1675      C1676   1.400       .  A
C1675      C1680   1.407       .  A
C1676      C1677   1.397       .  A
C1676      H1685   1.084       .  S
C1677      C1678   1.411       .  A
C1677      H1686   1.080       .  S
C1678      C1681   1.485       .  S
C1678      C1679   1.402       .  A
C1679      C1680   1.394       .  A
C1679      H1687   1.084       .  S
C1680      H1688   1.082       .  S
C1681      H1689   1.087       .  S
C1681      C1682   1.343       .  D
C1682      H1690   1.083       .  S
C1683      H1691   1.087       .  S
C1683      C1684   1.344       .  D
C1684      H1692   1.085       .  S
C1693      C1701   1.480       .  S
C1693      C1694   1.402       .  A
C1693      C1698   1.406       .  A
C1694      C1695   1.396       .  A
C1694      H1703   1.084       .  S
C1695      C1696   1.407       .  A
C1695      H1704   1.081       .  S
C1696      C1699   1.479       .  S
C1696      C1697   1.401       .  A
C1697      C1698   1.393       .  A
C1697      H1705   1.084       .  S
C1698      H1706   1.081       .  S
C1699      H1707   1.088       .  S
C1699      C1700   1.344       .  D
C1700      H1708   1.084   1_655  S
C1701      H1709   1.087       .  S
C1701      C1702   1.344       .  D
C1702      H1710   1.084       .  S
C1711      C1719   1.488       .  S
C1711      C1712   1.404       .  A
C1711      C1716   1.408   1_455  A
C1712      C1713   1.397       .  A
C1712      H1721   1.084       .  S
C1713      C1714   1.405       .  A
C1713      H1722   1.083       .  S
C1714      C1717   1.494       .  S
C1714      C1715   1.408   1_455  A
C1715      C1716   1.408       .  A
C1715      H1723   1.083       .  S
C1716      H1724   1.082       .  S
C1717      H1725   1.086   1_455  S
C1717      C1718   1.350       .  D
C1718      H1726   1.087       .  S
C1719      H1727   1.088       .  S
C1719      C1720   1.352       .  D
C1720      H1728   1.085   1_455  S
C1729      C1737   1.492       .  S
C1729      C1730   1.409       .  A
C1729      C1734   1.404       .  A
C1730      C1731   1.412       .  A
C1730      H1739   1.082   1_655  S
C1731      C1732   1.414       .  A
C1731      H1740   1.081   1_655  S
C1732      C1735   1.496       .  S
C1732      C1733   1.402       .  A
C1733      C1734   1.393       .  A
C1733      H1741   1.084       .  S
C1734      H1742   1.084       .  S
C1735      H1743   1.087       .  S
C1735      C1736   1.348       .  D
C1736      H1744   1.084       .  S
C1737      H1745   1.088       .  S
C1737      C1738   1.355       .  D
C1738      H1746   1.085       .  S
C1747      C1755   1.480       .  S
C1747      C1748   1.401       .  A
C1747      C1752   1.408       .  A
C1748      C1749   1.391       .  A
C1748      H1757   1.084   1_455  S
C1749      C1750   1.405       .  A
C1749      H1758   1.081   1_455  S
C1750      C1753   1.478       .  S
C1750      C1751   1.402       .  A
C1751      C1752   1.397       .  A
C1751      H1759   1.084       .  S
C1752      H1760   1.080       .  S
C1753      H1761   1.087       .  S
C1753      C1754   1.343       .  D
C1754      H1762   1.085       .  S
C1755      H1763   1.087       .  S
C1755      C1756   1.344       .  D
C1756      H1764   1.083       .  S
