geometry optimzed in LAMMPS
_audit_creation_date              2020-11-30 
_audit_creation_method            'lammps2cif' 
_symmetry_space_group_name_H-M    'P1' 
_symmetry_Int_Tables_number       1 
_symmetry_cell_setting            triclinic 
loop_ 
_symmetry_equiv_pos_as_xyz 
  x,y,z 
_cell_length_a                    30.791235561203006 
_cell_length_b                    42.73407888932448 
_cell_length_c                    24.383860536044477 
_cell_angle_alpha                 90.29928052002892 
_cell_angle_beta                  90.35793247607279 
_cell_angle_gamma                 89.22922860907313 
loop_ 
_atom_site_label 
_atom_site_type_symbol 
_atom_site_fract_x 
_atom_site_fract_y 
_atom_site_fract_z 
_atom_site_charge 
N1          N  0.70570410  0.06217418  0.32174451    -0.27630
N2          N  0.68482801  0.08902477  0.32935917    -0.35490
C3          C  0.64956355  0.08413330  0.36008528     0.00710
C4          C  0.64841567  0.05274111  0.37430690     0.06740
C5          C  0.68463876  0.03959033  0.34866193    -0.06360
H6          H  0.62554445  0.10208766  0.36880168     0.07400
H7          H  0.69428946  0.01517167  0.34785641     0.08600
Cu8        Cu  0.70403809  0.13142138  0.29755112     0.44170
Cu9        Cu  0.75829221  0.05692528  0.26896417     0.41990
Cu10       Cu  0.79052337  0.12862452  0.20073382     0.43880
N11         N  0.73126361  0.17117241  0.26493935    -0.35020
N12         N  0.76272868  0.17016267  0.22836582    -0.29270
C13         C  0.77410631  0.19956408  0.21599961    -0.05370
C14         C  0.74878005  0.22000086  0.24671528     0.06840
C15         C  0.72198468  0.20121938  0.27729577     0.00640
H16         H  0.79969039  0.20554673  0.18787356     0.08290
H17         H  0.69783931  0.20876443  0.30674807     0.07370
N18         N  0.81664350  0.08475328  0.18345949    -0.36470
N19         N  0.80553009  0.05863286  0.20827368    -0.28650
C20         C  0.82950432  0.03474068  0.18777644    -0.03880
C21         C  0.85737369  0.04651125  0.14866504     0.04730
C22         C  0.84791766  0.07822937  0.14684140     0.02820
H23         H  0.82673085  0.01063210  0.20040116     0.07920
H24         H  0.86334166  0.09549919  0.12147817     0.06760
C25         C  0.99890846  0.99280602  0.02257535     0.00220
C26         C  0.99809758  0.97316135  0.97789035     0.00220
N27         N  0.19674326  0.06103773  0.19330757    -0.27630
N28         N  0.19296166  0.08665486  0.16350617    -0.35490
C29         C  0.16329525  0.08203757  0.12373405     0.00710
C30         C  0.14610722  0.05238946  0.12970057     0.06740
C31         C  0.16881663  0.03965076  0.17387857    -0.06360
H32         H  0.15446501  0.09947151  0.09362859     0.07400
H33         H  0.16427802  0.01687807  0.19195980     0.08600
Cu34       Cu  0.22226571  0.12857664  0.18367836     0.44170
Cu35       Cu  0.23894003  0.05700767  0.25996710     0.41990
Cu36       Cu  0.28239375  0.12981729  0.31148757     0.43880
N37         N  0.24479122  0.16920333  0.22019718    -0.35020
N38         N  0.26622866  0.16969215  0.26733859    -0.29270
C39         C  0.27498285  0.19953019  0.28069598    -0.05370
C40         C  0.25800933  0.21871886  0.24015232     0.06840
C41         C  0.23906218  0.19873667  0.20246586     0.00640
H42         H  0.29205365  0.20668269  0.31747977     0.08290
H43         H  0.22194603  0.20514521  0.16523195     0.07370
N44         N  0.30025909  0.08629314  0.34206017    -0.36470
N45         N  0.28549262  0.05962864  0.32204040    -0.28650
C46         C  0.30859722  0.03581618  0.34404195    -0.03880
C47         C  0.33882673  0.04803655  0.38030250     0.04730
C48         C  0.33266508  0.08011148  0.37783554     0.02820
H49         H  0.30558802  0.01155618  0.33187154     0.07920
H50         H  0.35285424  0.09770741  0.39677599     0.06760
N51         N  0.79392224  0.91246140  0.81011140    -0.27630
N52         N  0.80506816  0.88570644  0.83385204    -0.35490
C53         C  0.83577516  0.89115841  0.87205366     0.00710
C54         C  0.84449742  0.92279734  0.87257093     0.06740
C55         C  0.81768870  0.93553699  0.83243219    -0.06360
H56         H  0.85224904  0.87313992  0.89560666     0.07400
H57         H  0.81646819  0.95968259  0.81933334     0.08600
Cu58       Cu  0.78262941  0.84202535  0.81045548     0.44170
Cu59       Cu  0.74839815  0.91678982  0.74663067     0.41990
Cu60       Cu  0.70189683  0.84277203  0.70676967     0.43880
N61         N  0.75876818  0.80136017  0.77544149    -0.35020
N62         N  0.72886836  0.80184627  0.73641754    -0.29270
C63         C  0.72101228  0.77242011  0.71981209    -0.05370
C64         C  0.74719277  0.75238984  0.75010004     0.06840
C65         C  0.77069202  0.77148283  0.78508893     0.00640
H66         H  0.69811069  0.76616464  0.68790126     0.08290
H67         H  0.79506480  0.76428028  0.81474148     0.07370
N68         N  0.68231760  0.88525371  0.67503947    -0.36470
N69         N  0.69978584  0.91250808  0.68709277    -0.28650
C70         C  0.67977804  0.93482698  0.65673664    -0.03880
C71         C  0.64851579  0.92070406  0.62374488     0.04730
C72         C  0.65071301  0.88939137  0.63776244     0.02820
H73         H  0.68711773  0.95948562  0.65897044     0.07920
H74         H  0.63008887  0.87080061  0.62326005     0.06760
C75         C  0.49780273  0.98966191  0.46235975     0.00220
C76         C  0.49923930  0.96962550  0.50627945     0.00220
N77         N  0.19916770  0.91183895  0.79541093    -0.27630
N78         N  0.17825009  0.88548063  0.80256742    -0.35490
C79         C  0.14399280  0.89081259  0.83487700     0.00710
C80         C  0.14279141  0.92219110  0.85053689     0.06740
C81         C  0.17912604  0.93462397  0.82470018    -0.06360
H82         H  0.12169046  0.87261053  0.84573671     0.07400
H83         H  0.19113703  0.95814575  0.82702056     0.08600
Cu84       Cu  0.19789665  0.84220633  0.77341048     0.44170
Cu85       Cu  0.25198094  0.91478904  0.74239453     0.41990
Cu86       Cu  0.28509910  0.83959196  0.67979178     0.43880
N87         N  0.22659944  0.80068576  0.74847706    -0.35020
N88         N  0.25883018  0.79962295  0.71304579    -0.29270
C89         C  0.27154190  0.76966804  0.70589251    -0.05370
C90         C  0.24618495  0.75108460  0.73881750     0.06840
C91         C  0.21803474  0.77150585  0.76529262     0.00640
H92         H  0.29779647  0.76209056  0.67948524     0.08290
H93         H  0.19335108  0.76568167  0.79477786     0.07370
N94         N  0.30992713  0.88261520  0.65820869    -0.36470
N95         N  0.29902074  0.90965249  0.68142935    -0.28650
C96         C  0.32376188  0.93227134  0.66013747    -0.03880
C97         C  0.35153248  0.91876790  0.62198573     0.04730
C98         C  0.34159880  0.88736069  0.62157883     0.02820
H99         H  0.32210412  0.95663276  0.67223266     0.07920
H100        H  0.35763859  0.86903009  0.59821234     0.06920
N101        N  0.69574858  0.56002744  0.68508928    -0.27630
N102        N  0.68921356  0.58669424  0.65889471    -0.35490
C103        C  0.65741887  0.58291365  0.62167766     0.00710
C104        C  0.64177910  0.55276234  0.62586523     0.06740
C105        C  0.66756674  0.53874293  0.66582871    -0.06360
H106        H  0.64561695  0.60132091  0.59504202     0.07400
H107        H  0.66474463  0.51525165  0.68160774     0.08600
Cu108      Cu  0.71676148  0.62898297  0.68095175     0.44170
Cu109      Cu  0.74099055  0.55443739  0.74777071     0.41990
Cu110      Cu  0.78596475  0.62729067  0.79850256     0.43880
N111        N  0.73883646  0.66919638  0.71940684    -0.35020
N112        N  0.76447228  0.66842509  0.76301974    -0.29270
C113        C  0.77199549  0.69782637  0.78004772    -0.05370
C114        C  0.74964782  0.71809771  0.74572984     0.06840
C115        C  0.72893134  0.69919444  0.70771974     0.00640
H116        H  0.79149520  0.70389217  0.81548744     0.08290
H117        H  0.70775003  0.70661171  0.67456063     0.07370
N118        N  0.80562045  0.58355267  0.82509348    -0.36470
N119        N  0.78993268  0.55686362  0.80642138    -0.28650
C120        C  0.81281681  0.53300561  0.82867733    -0.03880
C121        C  0.84444360  0.54544018  0.86270776     0.04730
C122        C  0.83858595  0.57746769  0.85981800     0.02820
H123        H  0.80774269  0.50855088  0.81932181     0.07920
H124        H  0.85839829  0.59513099  0.87922178     0.06760
N125        N  0.70457694  0.41469171  0.30765814    -0.27630
N126        N  0.69578929  0.38827011  0.33289617    -0.35490
C127        C  0.66291207  0.39335016  0.36784742     0.00710
C128        C  0.64893741  0.42420192  0.36293379     0.06740
C129        C  0.67683679  0.43716448  0.32512420    -0.06360
H130        H  0.64900672  0.37533893  0.39294007     0.07400
H131        H  0.67544531  0.46070142  0.30903089     0.08600
Cu132      Cu  0.72142692  0.34500829  0.31042312     0.44170
Cu133      Cu  0.75098748  0.41783981  0.24691368     0.41990
Cu134      Cu  0.78907477  0.34331218  0.19079389     0.43880
N135        N  0.74148702  0.30395649  0.27195799    -0.35020
N136        N  0.76648651  0.30332578  0.22809092    -0.29270
C137        C  0.77322579  0.27340983  0.21258506    -0.05370
C138        C  0.75097979  0.25435236  0.24810420     0.06840
C139        C  0.73115273  0.27447144  0.28516844     0.00640
H140        H  0.79242906  0.26615132  0.17765146     0.08290
H141        H  0.71072527  0.26820227  0.31921397     0.07370
N142        N  0.80981304  0.38652068  0.16417356    -0.36470
N143        N  0.79716003  0.41355398  0.18585002    -0.28650
C144        C  0.81997575  0.43670574  0.16315042    -0.03880
C145        C  0.84763339  0.42362076  0.12470484     0.04730
C146        C  0.84052545  0.39180140  0.12655056     0.02820
H147        H  0.81741057  0.46112630  0.17475904     0.07920
H148        H  0.85801773  0.37369410  0.10432564     0.06760
N149        N  0.19326787  0.55908985  0.79916769    -0.27630
N150        N  0.18773600  0.58536432  0.82726616    -0.35490
C151        C  0.15712363  0.58108700  0.86534081     0.00710
C152        C  0.14094678  0.55108600  0.85968770     0.06740
C153        C  0.16538762  0.53770387  0.81782383    -0.06360
H154        H  0.14702597  0.59900944  0.89408001     0.07400
H155        H  0.16223177  0.51442310  0.80078151     0.08600
Cu156      Cu  0.21515053  0.62795071  0.80771215     0.44170
Cu157      Cu  0.23807291  0.55322198  0.73651649     0.41990
Cu158      Cu  0.28675497  0.62580615  0.69495371     0.43880
N159        N  0.23778288  0.66822574  0.77097586    -0.35020
N160        N  0.26478106  0.66714116  0.72914956    -0.29270
C161        C  0.27256383  0.69635777  0.71214076    -0.05370
C162        C  0.24890657  0.71689450  0.74451550     0.06840
C163        C  0.22715591  0.69831625  0.78145720     0.00640
H164        H  0.29292174  0.70209080  0.67772646     0.08290
H165        H  0.20474735  0.70600476  0.81290975     0.07370
N166        N  0.30549520  0.58246039  0.66569993    -0.36470
N167        N  0.28841312  0.55561142  0.68049999    -0.28650
C168        C  0.31049929  0.53202572  0.65591040    -0.03880
C169        C  0.34299939  0.54492345  0.62441422     0.04730
C170        C  0.33848591  0.57685807  0.63136863     0.02820
H171        H  0.30388832  0.50744839  0.66138221     0.07920
H172        H  0.35883579  0.59476310  0.61428806     0.06760
C173        C  0.99584337  0.49340472  0.97136823     0.00220
C174        C  0.99747215  0.47331155  0.01516836     0.00220
C175        C  0.49444015  0.50065133  0.50803394     0.00220
C176        C  0.49571784  0.48333832  0.46046999     0.00220
N177        N  0.29071754  0.41348356  0.30930846    -0.27630
N178        N  0.30702036  0.38686098  0.32822363    -0.35490
C179        C  0.33924294  0.39314995  0.36378111     0.00710
C180        C  0.34336141  0.42528452  0.36761968     0.06740
C181        C  0.31230262  0.43742708  0.33214246    -0.06360
H182        H  0.36012408  0.37557517  0.38239974     0.07400
H183        H  0.30721315  0.46177266  0.32162920     0.08600
Cu184      Cu  0.28952007  0.34317017  0.29946675     0.44170
Cu185      Cu  0.24413004  0.41604809  0.24813378     0.41990
Cu186      Cu  0.22442719  0.34288989  0.17671093     0.43880
N187        N  0.27036444  0.30257999  0.26022297    -0.35020
N188        N  0.24701461  0.30238279  0.21456477    -0.29270
C189        C  0.23938100  0.27253850  0.19997729    -0.05370
C190        C  0.25889885  0.25310825  0.23839080     0.06840
C191        C  0.27827832  0.27293361  0.27594848     0.00640
H192        H  0.22036317  0.26557243  0.16463720     0.08290
H193        H  0.29639103  0.26637516  0.31235501     0.07370
N194        N  0.19768322  0.38571287  0.15357550    -0.36470
N195        N  0.20322215  0.41207920  0.18108563    -0.28650
C196        C  0.17702931  0.43439402  0.15982230    -0.03880
C197        C  0.15419140  0.42165412  0.11611038     0.04730
C198        C  0.16823781  0.39067650  0.11362194     0.02820
H199        H  0.17312146  0.45757816  0.17719509     0.07920
H200        H  0.15632025  0.37255368  0.08654443     0.06760
C201        C  0.45410545  0.47093783  0.43748181    -0.06460
C202        C  0.43076401  0.44941124  0.46876769    -0.17590
C203        C  0.39348056  0.43509955  0.44784563     0.10730
C204        C  0.37927367  0.44225463  0.39422018    -0.06390
C205        C  0.40172406  0.46446273  0.36357473    -0.17620
C206        C  0.43934858  0.47830621  0.38414595     0.10770
S207        S  0.36383266  0.40835213  0.49034508    -0.32590
S208        S  0.46747743  0.50481520  0.34023932    -0.32600
H209        H  0.50433586  0.48524163  0.33591557     0.28770
H210        H  0.39009656  0.41114410  0.53748133     0.28770
H211        H  0.44264555  0.44321632  0.50916656     0.19360
H212        H  0.39115157  0.46992634  0.32222311     0.19370
C213        C  0.03938250  0.45982005  0.03702834    -0.06460
C214        C  0.07390404  0.47966285  0.05107526    -0.17590
C215        C  0.11271691  0.46786478  0.07370088     0.10730
C216        C  0.11655214  0.43562331  0.08617941    -0.06390
C217        C  0.08225438  0.41588095  0.07189818    -0.17620
C218        C  0.04457307  0.42727754  0.04665135     0.10770
S219        S  0.15641023  0.49504129  0.08311146    -0.32590
S220        S  0.00526921  0.39838760  0.02675150    -0.32600
H221        H  0.99436291  0.41267902  0.97680661     0.28770
H222        H  0.18951247  0.47326872  0.07019764     0.28770
H223        H  0.07069676  0.50462377  0.04449435     0.19360
H224        H  0.08444348  0.39111169  0.08077932     0.19370
C225        C  0.10408866  0.53661301  0.88917928    -0.06460
C226        C  0.10314288  0.50380732  0.89404062    -0.17590
C227        C  0.06826236  0.48867669  0.91883198     0.10730
C228        C  0.03506416  0.50670612  0.94429581    -0.06390
C229        C  0.03635621  0.53941860  0.93968956    -0.17620
C230        C  0.06889896  0.55435282  0.91073482     0.10770
S231        S  0.06681293  0.44671884  0.91213418    -0.32590
S232        S  0.05980492  0.59541715  0.89786224    -0.32600
H233        H  0.07160936  0.59334950  0.84228382     0.28770
H234        H  0.02141693  0.44516880  0.90841557     0.28770
H235        H  0.12900445  0.48961074  0.87655604     0.19360
H236        H  0.01014390  0.55366999  0.95608554     0.19370
C237        C  0.37762428  0.52946471  0.59209332    -0.06460
C238        C  0.38695570  0.54213552  0.54065459    -0.17590
C239        C  0.42380586  0.53285978  0.51146584     0.10730
C240        C  0.45191880  0.50959503  0.53345103    -0.06390
C241        C  0.44127820  0.49566083  0.58353348    -0.17620
C242        C  0.40470935  0.50538821  0.61318387     0.10770
S243        S  0.43379143  0.55330524  0.44854373    -0.32590
S244        S  0.39667736  0.48787551  0.67926692    -0.32600
H245        H  0.38830926  0.51643016  0.70638923     0.28770
H246        H  0.47901074  0.55279724  0.45310049     0.28770
H247        H  0.36629123  0.56058662  0.52411767     0.19360
H248        H  0.46267852  0.47787557  0.60073253     0.19370
C249        C  0.53663583  0.46983097  0.43575954    -0.06460
C250        C  0.53657624  0.43761632  0.42337561    -0.17590
C251        C  0.57130276  0.42269972  0.39739473     0.10730
C252        C  0.60982525  0.43931651  0.38751589    -0.06390
C253        C  0.61045422  0.47148349  0.39988418    -0.17620
C254        C  0.57399211  0.48711274  0.42168524     0.10770
S255        S  0.56171115  0.38346845  0.37307898    -0.32590
S256        S  0.57660885  0.52906979  0.42558598    -0.32600
H257        H  0.53463894  0.53350648  0.40454668     0.28770
H258        H  0.58175049  0.38811015  0.32210123     0.28770
H259        H  0.50835594  0.42375509  0.43236458     0.19360
H260        H  0.63918191  0.48484552  0.39086933     0.19370
C261        C  0.95658517  0.46366013  0.04325710    -0.06460
C262        C  0.92391427  0.44867407  0.01257959    -0.17590
C263        C  0.88709392  0.43664310  0.03772168     0.10730
C264        C  0.88256869  0.43929042  0.09501482    -0.06390
C265        C  0.91414832  0.45502952  0.12561722    -0.17620
C266        C  0.95101493  0.46712805  0.10069128     0.10770
S267        S  0.84725297  0.41794556  0.99457665    -0.32590
S268        S  0.98968865  0.48597461  0.14542482    -0.32600
H269        H  0.00502675  0.50723587  0.10689192     0.28770
H270        H  0.81124096  0.42578026  0.02733044     0.28770
H271        H  0.92780055  0.44527392  0.96887083     0.19360
H272        H  0.91075055  0.45702443  0.16970921     0.19370
C273        C  0.88031212  0.52920347  0.89172262    -0.06460
C274        C  0.88923915  0.53805793  0.94605553    -0.17590
C275        C  0.92576690  0.52643206  0.97400513     0.10730
C276        C  0.95369222  0.50462115  0.94751751    -0.06390
C277        C  0.94387786  0.49505812  0.89377522    -0.17620
C278        C  0.90801680  0.50730061  0.86544203     0.10770
S279        S  0.93553505  0.54185247  0.04180987    -0.32590
S280        S  0.90194368  0.49604140  0.79454714    -0.32600
H281        H  0.89229656  0.52648109  0.77600707     0.28770
H282        H  0.98095514  0.54029226  0.03947345     0.28770
H283        H  0.86832493  0.55509008  0.96628319     0.19360
H284        H  0.96549311  0.47886326  0.87275730     0.19370
C285        C  0.60355220  0.53918634  0.59738138    -0.06460
C286        C  0.60328589  0.50693881  0.58540110    -0.17590
C287        C  0.56790903  0.49303453  0.55852595     0.10730
C288        C  0.53343334  0.51223131  0.53856945    -0.06390
C289        C  0.53338396  0.54420246  0.55232876    -0.17620
C290        C  0.56668999  0.55750236  0.58297440     0.10770
S291        S  0.56770329  0.45085089  0.55588572    -0.32590
S292        S  0.55716729  0.59699763  0.60683009    -0.32600
H293        H  0.57429651  0.59151882  0.65960712     0.28770
H294        H  0.52240766  0.44778182  0.55275881     0.28770
H295        H  0.63033513  0.49223319  0.59839510     0.19360
H296        H  0.50605904  0.55903349  0.54100699     0.19370
C297        C  0.45942611  0.95714002  0.53378500    -0.06460
C298        C  0.45652387  0.96028111  0.59114758    -0.17590
C299        C  0.42160857  0.94841243  0.62035883     0.10730
C300        C  0.38756922  0.93348758  0.59225525    -0.06390
C301        C  0.39025216  0.92979239  0.53519026    -0.17620
C302        C  0.42606311  0.94074479  0.50596404     0.10770
S303        S  0.42453565  0.94974318  0.69398669    -0.32590
S304        S  0.42948088  0.92977344  0.43496089    -0.32600
H305        H  0.46980361  0.91464122  0.44254974     0.28770
H306        H  0.39351514  0.97411269  0.69727748     0.28770
H307        H  0.48214036  0.97148051  0.61409826     0.19360
H308        H  0.36508867  0.91713183  0.51353685     0.19370
C309        C  0.61585698  0.93559017  0.58656076    -0.06460
C310        C  0.60049259  0.96600205  0.59818800    -0.17590
C311        C  0.56413722  0.97869978  0.57081860     0.10730
C312        C  0.54159497  0.96011451  0.53183778    -0.06390
C313        C  0.55789724  0.93023496  0.51922640    -0.17620
C314        C  0.59609719  0.91874306  0.54319241     0.10770
S315        S  0.54745584  0.01780823  0.59088108    -0.32590
S316        S  0.61918947  0.88354450  0.51366844    -0.32600
H317        H  0.66253849  0.89166473  0.52466647     0.28770
H318        H  0.50625363  0.01849511  0.56635134     0.28770
H319        H  0.61562072  0.97954576  0.63054618     0.19360
H320        H  0.54115653  0.91584341  0.48943477     0.19370
C321        C  0.37725403  0.03159325  0.40335965    -0.06460
C322        C  0.40533295  0.01633583  0.36681258    -0.17590
C323        C  0.44458980  0.00277334  0.38465612     0.10730
C324        C  0.45573450  0.00343593  0.44117068    -0.06390
C325        C  0.42731664  0.01888030  0.47775833    -0.17620
C326        C  0.38831652  0.03277523  0.45954206     0.10770
S327        S  0.47935870  0.98447818  0.33424515    -0.32590
S328        S  0.35394185  0.05144198  0.50993906    -0.32600
H329        H  0.31449084  0.04596694  0.48240474     0.28770
H330        H  0.45400505  0.99133190  0.28756436     0.28770
H331        H  0.39689141  0.01590666  0.32366414     0.19360
H332        H  0.43563917  0.02035057  0.52086038     0.19370
C333        C  0.95599489  0.96334311  0.95178617    -0.06460
C334        C  0.92524478  0.94721827  0.98302391    -0.17590
C335        C  0.88783389  0.93470329  0.95884757     0.10730
C336        C  0.88047375  0.93832710  0.90199965    -0.06390
C337        C  0.90999492  0.95545570  0.87121478    -0.17620
C338        C  0.94740649  0.96789146  0.89509170     0.10770
S339        S  0.85080928  0.91440236  0.00275195    -0.32590
S340        S  0.98242687  0.98918802  0.85001444    -0.32600
H341        H  0.99564445  0.01118727  0.88927413     0.28770
H342        H  0.81305293  0.92252737  0.97305223     0.28770
H343        H  0.93097310  0.94349035  0.02634850     0.19360
H344        H  0.90451380  0.95843395  0.82760265     0.19370
C345        C  0.10971842  0.03762445  0.09868972    -0.06460
C346        C  0.10892589  0.00478116  0.09461392    -0.17590
C347        C  0.07387487  0.98916368  0.07038570     0.10730
C348        C  0.03979492  0.00663722  0.04537616    -0.06390
C349        C  0.04164643  0.03942285  0.04734367    -0.17620
C350        C  0.07473042  0.05497936  0.07534814     0.10770
S351        S  0.07357369  0.94729929  0.07725049    -0.32590
S352        S  0.06664986  0.09647336  0.08482796    -0.32600
H353        H  0.07747856  0.09588316  0.14097198     0.28770
H354        H  0.02907854  0.94591709  0.08839852     0.28770
H355        H  0.13501933  0.99094294  0.11260397     0.19360
H356        H  0.01536140  0.05322280  0.02974260     0.19370
C357        C  0.03892162  0.96041445  0.95245455    -0.06460
C358        C  0.06885242  0.98087356  0.92901075    -0.17590
C359        C  0.10237514  0.96983011  0.89484425     0.10730
C360        C  0.10907173  0.93706317  0.88731230    -0.06390
C361        C  0.08112433  0.91688062  0.91540950    -0.17620
C362        C  0.04598611  0.92787995  0.94602273     0.10770
S363        S  0.13157152  0.99931406  0.85867977    -0.32590
S364        S  0.01167666  0.89847177  0.97535411    -0.32600
H365        H  0.99889081  0.91594335  0.02127886     0.28770
H366        H  0.12342129  0.98557185  0.80710625     0.28770
H367        H  0.06387572  0.00589510  0.93350618     0.19360
H368        H  0.08572905  0.89183512  0.91340637     0.19370
C369        C  0.61271873  0.03596159  0.40259656    -0.06460
C370        C  0.60640112  0.00415174  0.39041186    -0.17590
C371        C  0.57054386  0.98788567  0.41002019     0.10730
C372        C  0.53863779  0.00404814  0.44150125    -0.06390
C373        C  0.54559853  0.03554628  0.45492952    -0.17620
C374        C  0.58297099  0.05108571  0.43842471     0.10770
S375        S  0.56773178  0.94723302  0.39000186    -0.32590
S376        S  0.59197532  0.08900684  0.46874179    -0.32600
H377        H  0.63736349  0.08514135  0.47230835     0.28770
H378        H  0.52452077  0.94252795  0.40424683     0.28770
H379        H  0.62885885  0.99179144  0.36380434     0.19360
H380        H  0.52228212  0.04792103  0.48045524     0.19370
C381        C  0.95830094  0.00356018  0.05088489    -0.06460
C382        C  0.95236333  0.99408526  0.10531469    -0.17590
C383        C  0.91960145  0.00716230  0.13801103     0.10730
C384        C  0.89081988  0.02982802  0.11561873    -0.06390
C385        C  0.89579291  0.03854751  0.06058194    -0.17620
C386        C  0.92939546  0.02603935  0.02823211     0.10770
S387        S  0.91946312  0.99612644  0.20918286    -0.32590
S388        S  0.93705344  0.04111851  0.96012363    -0.32600
H389        H  0.89898272  0.05962563  0.95767039     0.28770
H390        H  0.91293178  0.02681396  0.22890552     0.28770
H391        H  0.97499485  0.97756386  0.12364442     0.19360
H392        H  0.87398203  0.05604909  0.04341789     0.19370
loop_ 
_geom_bond_atom_site_label_1 
_geom_bond_atom_site_label_2 
_geom_bond_distance 
_geom_bond_site_symmetry_2 
_ccdc_geom_bond_type 
N1            N2   1.320       .  A
N1            C5   1.346       .  A
N1           Cu9   2.084       .  S
N2            C3   1.342       .  A
N2           Cu8   2.070       .  S
C3            C4   1.388       .  A
C3            H6   1.080       .  S
C4            C5   1.392       .  A
C4          C369   1.495       .  S
C5            H7   1.081       .  S
Cu8          N11   2.069       .  S
Cu9          N19   2.084       .  S
Cu10         N12   2.072       .  S
Cu10         N18   2.072       .  S
N11          N12   1.321       .  A
N11          C15   1.345       .  A
N12          C13   1.345       .  A
C13          C14   1.383       .  A
C13          H16   1.082       .  S
C14          C15   1.383       .  A
C14         C138   1.471       .  S
C15          H17   1.082       .  S
N18          N19   1.323       .  A
N18          C22   1.343       .  A
N19          C20   1.348       .  A
C20          C21   1.388       .  A
C20          H23   1.081       .  S
C21          C22   1.383       .  A
C21         C384   1.484       .  S
C22          H24   1.082       .  S
C25          C26   1.372   1_554  D
C25         C348   1.500   1_665  S
C25         C381   1.498   1_565  S
C26         C333   1.504       .  S
C26         C357   1.500   1_655  S
N27          N28   1.321       .  A
N27          C31   1.346       .  A
N27         Cu35   2.081       .  S
N28          C29   1.344       .  A
N28         Cu34   2.072       .  S
C29          C30   1.388       .  A
C29          H32   1.080       .  S
C30          C31   1.390       .  A
C30         C345   1.493       .  S
C31          H33   1.082       .  S
Cu34         N37   2.073       .  S
Cu35         N45   2.082       .  S
Cu36         N38   2.074       .  S
Cu36         N44   2.074       .  S
N37          N38   1.322       .  A
N37          C41   1.345       .  A
N38          C39   1.345       .  A
C39          C40   1.383       .  A
C39          H42   1.082       .  S
C40          C41   1.383       .  A
C40         C190   1.471       .  S
C41          H43   1.082       .  S
N44          N45   1.322       .  A
N44          C48   1.346       .  A
N45          C46   1.346       .  A
C46          C47   1.385       .  A
C46          H49   1.082       .  S
C47          C48   1.383       .  A
C47         C321   1.478       .  S
C48          H50   1.082       .  S
N51          N52   1.324       .  A
N51          C55   1.346       .  A
N51         Cu59   2.089       .  S
N52          C53   1.345       .  A
N52         Cu58   2.075       .  S
C53          C54   1.382       .  A
C53          H56   1.082       .  S
C54          C55   1.385       .  A
C54         C336   1.479       .  S
C55          H57   1.082       .  S
Cu58         N61   2.074       .  S
Cu59         N69   2.088       .  S
Cu60         N62   2.059       .  S
Cu60         N68   2.058       .  S
N61          N62   1.320       .  A
N61          C65   1.345       .  A
N62          C63   1.344       .  A
C63          C64   1.382       .  A
C63          H66   1.082       .  S
C64          C65   1.385       .  A
C64         C114   1.470       .  S
C65          H67   1.082       .  S
N68          N69   1.320       .  A
N68          C72   1.338       .  A
N69          C70   1.350       .  A
C70          C71   1.392       .  A
C70          H73   1.082       .  S
C71          C72   1.383       .  A
C71         C309   1.488       .  S
C72          H74   1.080       .  S
C75          C76   1.375       .  D
C75         C324   1.505   1_565  S
C75         C372   1.500   1_565  S
C76         C297   1.506       .  S
C76         C312   1.494       .  S
N77          N78   1.318       .  A
N77          C81   1.349       .  A
N77         Cu85   2.089       .  S
N78          C79   1.337       .  A
N78         Cu84   2.062       .  S
C79          C80   1.392       .  A
C79          H82   1.080       .  S
C80          C81   1.400       .  A
C80         C360   1.508       .  S
C81          H83   1.077       .  S
Cu84         N87   2.062       .  S
Cu85         N95   2.091       .  S
Cu86         N88   2.071       .  S
Cu86         N94   2.072       .  S
N87          N88   1.320       .  A
N87          C91   1.345       .  A
N88          C89   1.344       .  A
C89          C90   1.384       .  A
C89          H92   1.082       .  S
C90          C91   1.382       .  A
C90         C162   1.470       .  S
C91          H93   1.082       .  S
N94          N95   1.324       .  A
N94          C98   1.345       .  A
N95          C96   1.347       .  A
C96          C97   1.386       .  A
C96          H99   1.081       .  S
C97          C98   1.381       .  A
C97         C300   1.479       .  S
C98         H100   1.082       .  S
N101        N102   1.322       .  A
N101        C105   1.346       .  A
N101       Cu109   2.074       .  S
N102        C103   1.342       .  A
N102       Cu108   2.074       .  S
C103        C104   1.386       .  A
C103        H106   1.080       .  S
C104        C105   1.387       .  A
C104        C285   1.486       .  S
C105        H107   1.082       .  S
Cu108       N111   2.074       .  S
Cu109       N119   2.074       .  S
Cu110       N112   2.063       .  S
Cu110       N118   2.063       .  S
N111        N112   1.321       .  A
N111        C115   1.345       .  A
N112        C113   1.344       .  A
C113        C114   1.381       .  A
C113        H116   1.082       .  S
C114        C115   1.385       .  A
C115        H117   1.082       .  S
N118        N119   1.322       .  A
N118        C122   1.341       .  A
N119        C120   1.346       .  A
C120        C121   1.385       .  A
C120        H123   1.082       .  S
C121        C122   1.380       .  A
C121        C273   1.475       .  S
C122        H124   1.082       .  S
N125        N126   1.321       .  A
N125        C129   1.346       .  A
N125       Cu133   2.071       .  S
N126        C127   1.342       .  A
N126       Cu132   2.073       .  S
C127        C128   1.387       .  A
C127        H130   1.080       .  S
C128        C129   1.387       .  A
C128        C252   1.487       .  S
C129        H131   1.082       .  S
Cu132       N135   2.074       .  S
Cu133       N143   2.071       .  S
Cu134       N136   2.070       .  S
Cu134       N142   2.071       .  S
N135        N136   1.322       .  A
N135        C139   1.345       .  A
N136        C137   1.345       .  A
C137        C138   1.383       .  A
C137        H140   1.082       .  S
C138        C139   1.383       .  A
C139        H141   1.082       .  S
N142        N143   1.323       .  A
N142        C146   1.344       .  A
N143        C144   1.345       .  A
C144        C145   1.381       .  A
C144        H147   1.082       .  S
C145        C146   1.381       .  A
C145        C264   1.471       .  S
C146        H148   1.082       .  S
N149        N150   1.322       .  A
N149        C153   1.345       .  A
N149       Cu157   2.077       .  S
N150        C151   1.342       .  A
N150       Cu156   2.075       .  S
C151        C152   1.388       .  A
C151        H154   1.079       .  S
C152        C153   1.388       .  A
C152        C225   1.490       .  S
C153        H155   1.082       .  S
Cu156       N159   2.075       .  S
Cu157       N167   2.076       .  S
Cu158       N160   2.057       .  S
Cu158       N166   2.058       .  S
N159        N160   1.320       .  A
N159        C163   1.346       .  A
N160        C161   1.343       .  A
C161        C162   1.381       .  A
C161        H164   1.082       .  S
C162        C163   1.385       .  A
C163        H165   1.082       .  S
N166        N167   1.321       .  A
N166        C170   1.339       .  A
N167        C168   1.348       .  A
C168        C169   1.387       .  A
C168        H171   1.082       .  S
C169        C170   1.380       .  A
C169        C237   1.477       .  S
C170        H172   1.082       .  S
C173        C174   1.374   1_556  D
C173        C228   1.500   1_655  S
C173        C276   1.493       .  S
C174        C213   1.502   1_655  S
C174        C261   1.501       .  S
C175        C176   1.373       .  D
C175        C240   1.496       .  S
C175        C288   1.497       .  S
C176        C201   1.498       .  S
C176        C249   1.507       .  S
N177        N178   1.321       .  A
N177        C181   1.344       .  A
N177       Cu185   2.065       .  S
N178        C179   1.343       .  A
N178       Cu184   2.068       .  S
C179        C180   1.383       .  A
C179        H182   1.082       .  S
C180        C181   1.383       .  A
C180        C204   1.475       .  S
C181        H183   1.082       .  S
Cu184       N187   2.068       .  S
Cu185       N195   2.065       .  S
Cu186       N188   2.076       .  S
Cu186       N194   2.076       .  S
N187        N188   1.322       .  A
N187        C191   1.344       .  A
N188        C189   1.346       .  A
C189        C190   1.384       .  A
C189        H192   1.082       .  S
C190        C191   1.382       .  A
C191        H193   1.082       .  S
N194        N195   1.321       .  A
N194        C198   1.342       .  A
N195        C196   1.345       .  A
C196        C197   1.386       .  A
C196        H199   1.081       .  S
C197        C198   1.388       .  A
C197        C216   1.486       .  S
C198        H200   1.082       .  S
C201        C202   1.406       .  A
C201        C206   1.411       .  A
C202        C203   1.400       .  A
C202        H211   1.082       .  S
C203        C204   1.410       .  A
C203        S207   1.807       .  S
C204        C205   1.403       .  A
C205        C206   1.397       .  A
C205        H212   1.083       .  S
C206        S208   1.797       .  S
S207        H210   1.407       .  S
S208        H209   1.405       .  S
C213        C214   1.408       .  A
C213        C218   1.418       .  A
C214        C215   1.402       .  A
C214        H223   1.083       .  S
C215        C216   1.416       .  A
C215        S219   1.802       .  S
C216        C217   1.402       .  A
C217        C218   1.393       .  A
C217        H224   1.083       .  S
C218        S220   1.803       .  S
S219        H222   1.407       .  S
S220        H221   1.402   1_454  S
C225        C226   1.408       .  A
C225        C230   1.416       .  A
C226        C227   1.403       .  A
C226        H235   1.083       .  S
C227        C228   1.416       .  A
C227        S231   1.801       .  S
C228        C229   1.404       .  A
C229        C230   1.393       .  A
C229        H236   1.082       .  S
C230        S232   1.802       .  S
S231        H234   1.403       .  S
S232        H233   1.407       .  S
C237        C238   1.402       .  A
C237        C242   1.413       .  A
C238        C239   1.395       .  A
C238        H247   1.084       .  S
C239        C240   1.415       .  A
C239        S243   1.800       .  S
C240        C241   1.404       .  A
C241        C242   1.399       .  A
C241        H248   1.084       .  S
C242        S244   1.800       .  S
S243        H246   1.396       .  S
S244        H245   1.406       .  S
C249        C250   1.408       .  A
C249        C254   1.420       .  A
C250        C251   1.392       .  A
C250        H259   1.082       .  S
C251        C252   1.413       .  A
C251        S255   1.803       .  S
C252        C253   1.406       .  A
C253        C254   1.405       .  A
C253        H260   1.084       .  S
C254        S256   1.798       .  S
S255        H258   1.407       .  S
S256        H257   1.398       .  S
C261        C262   1.409       .  A
C261        C266   1.419       .  A
C262        C263   1.398       .  A
C262        H271   1.082   1_554  S
C263        C264   1.409       .  A
C263        S267   1.803   1_554  S
C264        C265   1.399       .  A
C265        C266   1.398       .  A
C265        H272   1.084       .  S
C266        S268   1.805       .  S
S267        H270   1.406   1_556  S
S268        H269   1.399   1_655  S
C273        C274   1.402       .  A
C273        C278   1.412       .  A
C274        C275   1.398       .  A
C274        H283   1.084       .  S
C275        C276   1.416       .  A
C275        S279   1.802   1_556  S
C276        C277   1.403       .  A
C277        C278   1.396       .  A
C277        H284   1.083       .  S
C278        S280   1.801       .  S
S279        H282   1.401       .  S
S280        H281   1.407       .  S
C285        C286   1.407       .  A
C285        C290   1.414       .  A
C286        C287   1.405       .  A
C286        H295   1.083       .  S
C287        C288   1.418       .  A
C287        S291   1.804       .  S
C288        C289   1.405       .  A
C289        C290   1.391       .  A
C289        H296   1.082       .  S
C290        S292   1.803       .  S
S291        H294   1.404       .  S
S292        H293   1.407       .  S
C297        C298   1.408       .  A
C297        C302   1.418       .  A
C298        C299   1.396       .  A
C298        H307   1.080       .  S
C299        C300   1.407       .  A
C299        S303   1.798       .  S
C300        C301   1.402       .  A
C301        C302   1.404       .  A
C301        H308   1.084       .  S
C302        S304   1.795       .  S
S303        H306   1.406       .  S
S304        H305   1.404       .  S
C309        C310   1.405       .  A
C309        C314   1.415       .  A
C310        C311   1.404       .  A
C310        H319   1.083       .  S
C311        C312   1.419       .  A
C311        S315   1.808   1_565  S
C312        C313   1.399       .  A
C313        C314   1.395       .  A
C313        H320   1.082       .  S
C314        S316   1.804       .  S
S315        H318   1.399       .  S
S316        H317   1.407       .  S
C321        C322   1.398       .  A
C321        C326   1.410       .  A
C322        C323   1.401       .  A
C322        H331   1.082       .  S
C323        C324   1.418       .  A
C323        S327   1.803   1_545  S
C324        C325   1.409       .  A
C325        C326   1.403       .  A
C325        H332   1.082       .  S
C326        S328   1.803       .  S
S327        H330   1.406       .  S
S328        H329   1.406       .  S
C333        C334   1.408       .  A
C333        C338   1.420       .  A
C334        C335   1.402       .  A
C334        H343   1.082   1_556  S
C335        C336   1.412       .  A
C335        S339   1.803   1_556  S
C336        C337   1.399       .  A
C337        C338   1.398       .  A
C337        H344   1.084       .  S
C338        S340   1.803       .  S
S339        H342   1.406   1_554  S
S340        H341   1.401   1_565  S
C345        C346   1.407       .  A
C345        C350   1.418       .  A
C346        C347   1.402   1_545  A
C346        H355   1.083   1_545  S
C347        C348   1.416   1_565  A
C347        S351   1.798       .  S
C348        C349   1.404       .  A
C349        C350   1.397       .  A
C349        H356   1.083       .  S
C350        S352   1.801       .  S
S351        H354   1.401       .  S
S352        H353   1.407       .  S
C357        C358   1.405       .  A
C357        C362   1.412       .  A
C358        C359   1.406       .  A
C358        H367   1.083   1_565  S
C359        C360   1.424       .  A
C359        S363   1.796       .  S
C360        C361   1.410       .  A
C361        C362   1.393       .  A
C361        H368   1.079       .  S
C362        S364   1.806       .  S
S363        H366   1.408       .  S
S364        H365   1.398   1_456  S
C369        C370   1.406       .  A
C369        C374   1.417       .  A
C370        C371   1.401   1_545  A
C370        H379   1.082   1_545  S
C371        C372   1.420   1_565  A
C371        S375   1.805       .  S
C372        C373   1.403       .  A
C373        C374   1.399       .  A
C373        H380   1.084       .  S
C374        S376   1.802       .  S
S375        H378   1.395       .  S
S376        H377   1.407       .  S
C381        C382   1.403   1_545  A
C381        C386   1.413       .  A
C382        C383   1.398   1_565  A
C382        H391   1.082       .  S
C383        C384   1.414       .  A
C383        S387   1.801   1_545  S
C384        C385   1.404       .  A
C385        C386   1.403       .  A
C385        H392   1.083       .  S
C386        S388   1.803   1_554  S
S387        H390   1.407   1_565  S
S388        H389   1.406       .  S
