geometry optimzed in LAMMPS
_audit_creation_date              2020-11-30 
_audit_creation_method            'lammps2cif' 
_symmetry_space_group_name_H-M    'P1' 
_symmetry_Int_Tables_number       1 
_symmetry_cell_setting            triclinic 
loop_ 
_symmetry_equiv_pos_as_xyz 
  x,y,z 
_cell_length_a                    44.84338365 
_cell_length_b                    44.80359476936918 
_cell_length_c                    44.756167064260275 
_cell_angle_alpha                 89.95459316596369 
_cell_angle_beta                  89.92210299576949 
_cell_angle_gamma                 89.98327268810822 
loop_ 
_atom_site_label 
_atom_site_type_symbol 
_atom_site_fract_x 
_atom_site_fract_y 
_atom_site_fract_z 
_atom_site_charge 
N1          N  0.98555313  0.26109782  0.26040827    -0.03400
C2          C  0.98221390  0.23117724  0.26366251    -0.00900
C3          C  0.98204330  0.21732810  0.23605502    -0.23700
C4          C  0.98453705  0.23948465  0.21505500    -0.23900
C5          C  0.98636070  0.26606614  0.23056404    -0.01000
H6          H  0.97982202  0.19368018  0.23168204     0.12800
H7          H  0.98396477  0.23667790  0.19104733     0.12900
O8          O  0.00037207  0.41114292  0.44703334    -0.80100
O9          O  0.00345398  0.58181647  0.44550256    -0.81700
O10         O  0.95404129  0.49686545  0.41008440    -0.78700
O11         O  0.05000726  0.49898573  0.40942140    -0.77100
O12         O  0.08753875  0.49833349  0.44407525    -0.78800
O13         O  0.91733459  0.49598313  0.44543316    -0.79800
O14         O  0.00189392  0.54535646  0.40986036    -0.81100
O15         O  0.00133085  0.44695363  0.41066164    -0.81400
Eu16       Eu  0.00212356  0.49627901  0.43489404     2.39200
O17         O  0.03327387  0.52609337  0.46435611    -0.88900
O18         O  0.97137423  0.46661906  0.46531215    -0.92500
C19         C  0.00070553  0.41946380  0.41941142     1.02200
C20         C  0.00297472  0.57298768  0.41804167     1.02000
C21         C  0.92644100  0.49655367  0.41800471     1.01900
C22         C  0.07766892  0.50007071  0.41694836     0.99800
H23         H  0.95956436  0.53968672  0.45209930     0.29500
O24         O  0.97174147  0.52702075  0.46458871    -1.01300
H25         H  0.04477551  0.45294667  0.45197940     0.29600
O26         O  0.03274966  0.46563662  0.46460230    -1.03800
O27         O  0.00406144  0.58120586  0.54350847    -0.81100
O28         O  0.00213748  0.41200748  0.54513100    -0.80600
O29         O  0.91799174  0.54747702  0.49572302    -0.79000
O30         O  0.08818158  0.54562139  0.49402047    -0.82400
O31         O  0.08742803  0.44563628  0.49470259    -0.80200
O32         O  0.91642769  0.44797672  0.49749583    -0.78900
O33         O  0.95466150  0.50029050  0.57996785    -0.80400
O34         O  0.05101507  0.49683261  0.57902270    -0.82300
O35         O  0.91741026  0.50058721  0.54505727    -0.79100
O36         O  0.08793024  0.49538349  0.54407231    -0.81700
O37         O  0.95553931  0.58206025  0.49605204    -0.77500
O38         O  0.95303959  0.41238489  0.49712571    -0.77500
O39         O  0.04960071  0.41132602  0.49697905    -0.77200
O40         O  0.05114327  0.58083081  0.49385935    -0.80600
O41         O  0.00413929  0.54556115  0.57988210    -0.80100
O42         O  0.00222857  0.44828590  0.58091999    -0.78400
Eu43       Eu  0.00309181  0.55645154  0.49444001     2.39800
Eu44       Eu  0.00167498  0.43656800  0.49571320     2.39600
Eu45       Eu  0.94102558  0.49729434  0.49531321     2.38400
Eu46       Eu  0.06408934  0.49580736  0.49424945     2.39900
Eu47       Eu  0.00273027  0.49685451  0.55492532     2.39800
O48         O  0.03305859  0.46634656  0.52506327    -0.92800
O49         O  0.97235598  0.52715080  0.52498502    -0.91700
C50         C  0.00419022  0.57301063  0.57114248     1.02400
C51         C  0.00242498  0.42066343  0.57267901     1.01100
C52         C  0.92785525  0.57460617  0.49640756     1.00500
C53         C  0.07868203  0.57291793  0.49378815     1.02500
C54         C  0.07734690  0.41859298  0.49619022     1.01400
C55         C  0.92550077  0.42056528  0.49777233     1.00200
C56         C  0.92707929  0.50189496  0.57223617     1.00300
C57         C  0.07867625  0.49616072  0.57142641     1.02900
H58         H  0.95903568  0.45482943  0.53878396     0.30300
O59         O  0.97132557  0.46691512  0.52581658    -1.05000
H60         H  0.04611844  0.53887724  0.53687917     0.32300
O61         O  0.03368925  0.52638077  0.52450889    -1.07500
N62         N  0.00362867  0.73149619  0.73010710    -0.03400
C63         C  0.99896454  0.72767959  0.75976562    -0.00900
C64         C  0.00083409  0.75469227  0.77453155    -0.23700
C65         C  0.00685866  0.77589031  0.75317670    -0.23900
C66         C  0.00875684  0.76100057  0.72620121    -0.01000
H67         H  0.99874837  0.75843161  0.79832685     0.12800
H68         H  0.00950756  0.79960864  0.75687124     0.12900
N69         N  0.98872639  0.25939798  0.72970402    -0.03400
C70         C  0.99108544  0.22965733  0.72446200    -0.00900
C71         C  0.98866477  0.21353080  0.75060149    -0.23700
C72         C  0.98485271  0.23388513  0.77301815    -0.23900
C73         C  0.98530545  0.26178155  0.75981605    -0.01000
H74         H  0.98985089  0.18952521  0.75304248     0.12800
H75         H  0.98276711  0.22897309  0.79661197     0.12900
N76         N  0.01246225  0.73070081  0.25793762    -0.03400
C77         C  0.01488930  0.72909227  0.22772758    -0.00900
C78         C  0.01838811  0.75719944  0.21551493    -0.23700
C79         C  0.01754132  0.77697468  0.23883773    -0.23900
C80         C  0.01384865  0.76022480  0.26446675    -0.01000
H81         H  0.02040963  0.76272914  0.19205604     0.12800
H82         H  0.01871315  0.80105350  0.23728016     0.12900
O83         O  0.99732784  0.04569114  0.40905550    -0.80100
O84         O  0.00369695  0.04348353  0.58006541    -0.81700
O85         O  0.95146757  0.08003739  0.49660588    -0.78700
O86         O  0.04845555  0.07997838  0.49291430    -0.77100
O87         O  0.08462923  0.04400839  0.49235267    -0.78800
O88         O  0.91521018  0.04418524  0.49712384    -0.79800
O89         O  0.00344249  0.07893023  0.54319467    -0.81100
O90         O  0.99685228  0.08025266  0.44672833    -0.81400
Eu91       Eu  0.99987044  0.05473038  0.49463247     2.39200
O92         O  0.03058272  0.02440605  0.52406491    -0.88900
O93         O  0.96879927  0.02526872  0.46462146    -0.92500
C94         C  0.99639741  0.07278556  0.41896770     1.02200
C95         C  0.00487654  0.07079937  0.57074839     1.02000
C96         C  0.92396014  0.07167036  0.49743702     1.01900
C97         C  0.07595055  0.07151693  0.49241251     0.99800
H98         H  0.95810859  0.03701080  0.53892473     0.29500
O99         O  0.97022102  0.02465386  0.52604853    -1.01300
H100        H  0.04172631  0.03818535  0.44979210     0.29600
O101        O  0.02950195  0.02564886  0.46239165    -1.03800
O102        O  0.00453043  0.94402926  0.57861130    -0.81100
O103        O  0.99716194  0.94663985  0.40792402    -0.80600
O104        O  0.91596899  0.99167672  0.54441410    -0.79000
O105        O  0.08644117  0.99532094  0.53923836    -0.82400
O106        O  0.08290008  0.99178998  0.44336438    -0.80200
O107        O  0.91321385  0.99641932  0.44785780    -0.78900
O108        O  0.95124628  0.90957576  0.49584109    -0.80400
O109        O  0.04838967  0.90957305  0.49077278    -0.82300
O110        O  0.91486100  0.94533845  0.49587494    -0.79100
O111        O  0.08453459  0.94547912  0.49218700    -0.81700
O112        O  0.95192750  0.99169199  0.58075710    -0.77500
O113        O  0.94782768  0.99719537  0.41023407    -0.77500
O114        O  0.04694791  0.99217210  0.40710691    -0.77200
O115        O  0.05235618  0.99552056  0.57730997    -0.80600
O116        O  0.00371848  0.90928380  0.54109357    -0.80100
O117        O  0.99908160  0.91123246  0.44468083    -0.78400
Eu118      Eu  0.00139791  0.99412390  0.55560891     2.39800
Eu119      Eu  0.99811552  0.99575339  0.43257762     2.39600
Eu120      Eu  0.93951403  0.99474183  0.49557295     2.38400
Eu121      Eu  0.05980395  0.99484828  0.49224922     2.39900
Eu122      Eu  0.99980818  0.93495387  0.49340216     2.39800
O123        O  0.02890541  0.96528707  0.46226753    -0.92800
O124        O  0.97043407  0.96442605  0.52520642    -0.91700
C125        C  0.00551237  0.91690950  0.56873619     1.02400
C126        C  0.99811739  0.91933043  0.41711122     1.01100
C127        C  0.92443966  0.99068813  0.57186020     1.00500
C128        C  0.07941094  0.99564653  0.56709533     1.02500
C129        C  0.07432210  0.99032106  0.41601057     1.01400
C130        C  0.92069302  0.99710901  0.42004814     1.00200
C131        C  0.92368299  0.91785761  0.49652705     1.00300
C132        C  0.07591308  0.91796415  0.49091540     1.02900
H133        H  0.95579106  0.95257035  0.45162755     0.30300
O134        O  0.96863994  0.96497903  0.46366503    -1.05000
H135        H  0.04389845  0.95201286  0.53519513     0.32300
O136        O  0.03078359  0.96451689  0.52354609    -1.07500
N137        N  0.23535243  0.22981216  0.50098494    -0.03400
C138        C  0.23156823  0.25976302  0.50343838    -0.00900
C139        C  0.25867782  0.27433320  0.50194765    -0.23700
C140        C  0.28004572  0.25266273  0.49903321    -0.23900
C141        C  0.26524046  0.22562840  0.49857876    -0.01000
H142        H  0.26247393  0.29814778  0.50328663     0.12800
H143        H  0.30392880  0.25610207  0.49851715     0.12900
N144        N  0.76678896  0.23145964  0.49691740    -0.03400
C145        C  0.76961608  0.26139717  0.50033900    -0.00900
C146        C  0.74197490  0.27501346  0.49953363    -0.23700
C147        C  0.72143736  0.25279904  0.49485349    -0.23900
C148        C  0.73730437  0.22644171  0.49307661    -0.01000
H149        H  0.73736822  0.29864678  0.50143691     0.12800
H150        H  0.69754125  0.25551823  0.49287664     0.12900
N151        N  0.76547347  0.75892613  0.51318705    -0.03400
C152        C  0.73539237  0.76163157  0.51633425    -0.00900
C153        C  0.72193906  0.73384778  0.51526843    -0.23700
C154        C  0.74421865  0.71330847  0.51169777    -0.23900
C155        C  0.77050408  0.72918971  0.51045530    -0.01000
H156        H  0.69828500  0.72910555  0.51590290     0.12800
H157        H  0.74155761  0.68939241  0.50961766     0.12900
N158        N  0.23765104  0.76124310  0.48907333    -0.03400
C159        C  0.23421347  0.73122675  0.49195653    -0.00900
C160        C  0.26148294  0.71700515  0.49315447    -0.23700
C161        C  0.28268727  0.73880745  0.49121443    -0.23900
C162        C  0.26768624  0.76568725  0.48916144    -0.01000
H163        H  0.26544955  0.69327818  0.49539967     0.12800
H164        H  0.30659746  0.73551830  0.49170904     0.12900
N165        N  0.73735917  0.98318718  0.25666292    -0.03400
C166        C  0.76706382  0.98754350  0.26065087    -0.00900
C167        C  0.78210211  0.98631707  0.23376590    -0.23700
C168        C  0.76106050  0.98117441  0.21224506    -0.23900
C169        C  0.73386384  0.97920811  0.22674226    -0.01000
H170        H  0.80580840  0.98918068  0.23021882     0.12800
H171        H  0.76503774  0.97982611  0.18842723     0.12900
O172        O  0.45387196  0.08267424  0.49606414    -0.80100
O173        O  0.45208638  0.91199517  0.49258926    -0.81700
O174        O  0.41834694  0.99916027  0.44427743    -0.78700
O175        O  0.41777060  0.99599733  0.54270907    -0.77100
O176        O  0.45381613  0.99634857  0.57868736    -0.78800
O177        O  0.45438140  0.99827663  0.40813441    -0.79800
O178        O  0.41753034  0.94964410  0.49293215    -0.81100
O179        O  0.41861647  0.04570509  0.49606817    -0.81400
Eu180      Eu  0.44294657  0.99729292  0.49348272     2.39200
O181        O  0.47227180  0.96589013  0.52340054    -0.88900
O182        O  0.47311461  0.02795236  0.46339500    -0.92500
C183        C  0.42659673  0.07325579  0.49733548     1.02200
C184        C  0.42497930  0.92193332  0.49265337     1.02000
C185        C  0.42685618  0.99948280  0.41668947     1.01900
C186        C  0.42633587  0.99635506  0.57028939     0.99800
H187        H  0.46011387  0.95439549  0.45048562     0.29500
O188        O  0.47270316  0.96631515  0.46326930    -1.01300
H189        H  0.46071771  0.03930428  0.53673346     0.29600
O190        O  0.47311702  0.02719460  0.52392016    -1.03800
O191        O  0.55244414  0.91094876  0.49596654    -0.81100
O192        O  0.55377649  0.08122928  0.49337633    -0.80600
O193        O  0.50409079  0.94857134  0.40901261    -0.79000
O194        O  0.49852101  0.94722678  0.57818575    -0.82400
O195        O  0.50278476  0.04367445  0.57895322    -0.80200
O196        O  0.50448731  0.04532173  0.40876763    -0.78900
O197        O  0.58789165  0.99402077  0.44536612    -0.80400
O198        O  0.58725063  0.99591331  0.54356050    -0.82300
O199        O  0.55247213  0.99529882  0.40879575    -0.79100
O200        O  0.55090082  0.99447167  0.57931923    -0.81700
O201        O  0.50313692  0.91120073  0.44380057    -0.77500
O202        O  0.50326602  0.08231336  0.44407297    -0.77500
O203        O  0.50377813  0.08119491  0.54418742    -0.77200
O204        O  0.49864686  0.91022931  0.54298479    -0.80600
O205        O  0.58761811  0.94788401  0.49533057    -0.80100
O206        O  0.58815917  0.04340965  0.49345789    -0.78400
Eu207      Eu  0.50235468  0.93481343  0.49354138     2.39800
Eu208      Eu  0.50345951  0.05816085  0.49399874     2.39600
Eu209      Eu  0.50324559  0.99692172  0.43355781     2.38400
Eu210      Eu  0.50248627  0.99577338  0.55376288     2.39900
Eu211      Eu  0.56263078  0.99581070  0.49427212     2.39800
O212        O  0.53301712  0.02680204  0.52439033    -0.92800
O213        O  0.53277619  0.96565772  0.46363789    -0.91700
C214        C  0.57978738  0.92033956  0.49678613     1.02400
C215        C  0.58083746  0.07112686  0.49258963     1.01100
C216        C  0.50391438  0.92084050  0.41658450     1.00500
C217        C  0.49708120  0.91963752  0.57027860     1.02500
C218        C  0.50311814  0.07137667  0.57137685     1.01400
C219        C  0.50411805  0.07292269  0.41673647     1.00200
C220        C  0.57986307  0.99390573  0.41767113     1.00300
C221        C  0.57846649  0.99457757  0.57104106     1.02900
H222        H  0.54622275  0.03900932  0.45132496     0.30300
O223        O  0.53343400  0.02702642  0.46389155    -1.05000
H224        H  0.54468014  0.95249399  0.53706392     0.32300
O225        O  0.53258865  0.96489544  0.52423895    -1.07500
N226        N  0.26641947  0.99132052  0.72833845    -0.03400
C227        C  0.26864226  0.98597457  0.75812513    -0.00900
C228        C  0.24076146  0.98549025  0.77127925    -0.23700
C229        C  0.22053065  0.99007174  0.74887815    -0.23900
C230        C  0.23668449  0.99328637  0.72276726    -0.01000
H231        H  0.23573158  0.98241121  0.79473577     0.12800
H232        H  0.19652250  0.99085721  0.75128637     0.12900
N233        N  0.73561705  0.98661201  0.73156598    -0.03400
C234        C  0.76554899  0.98323074  0.72817546    -0.00900
C235        C  0.77956244  0.98330585  0.75566959    -0.23700
C236        C  0.75772778  0.98740892  0.77672806    -0.23900
C237        C  0.73115579  0.98959299  0.76136122    -0.01000
H238        H  0.80323612  0.98123167  0.75985702     0.12800
H239        H  0.76084577  0.98893833  0.80065450     0.12900
N240        N  0.26462552  0.00057675  0.26039819    -0.03400
C241        C  0.26717519  0.00389643  0.23029905    -0.00900
C242        C  0.23987431  0.99976317  0.21656419    -0.23700
C243        C  0.21972974  0.99382877  0.23872358    -0.23900
C244        C  0.23545417  0.99414378  0.26518448    -0.01000
H245        H  0.23531627  0.00001080  0.19282592     0.12800
H246        H  0.19618918  0.98933136  0.23589466     0.12900
O247        O  0.58404613  0.99331263  0.04551651    -0.80100
O248        O  0.41363568  0.99539975  0.04489426    -0.81700
O249        O  0.50268023  0.04503171  0.08000345    -0.78700
O250        O  0.49563934  0.94681105  0.08109620    -0.77100
O251        O  0.49709168  0.91067963  0.04517770    -0.78800
O252        O  0.49977838  0.08054761  0.04359714    -0.79800
O253        O  0.45057035  0.99760059  0.08021330    -0.81100
O254        O  0.54696507  0.99180343  0.08079992    -0.81400
Eu255      Eu  0.49891515  0.99564800  0.05571265     2.39200
O256        O  0.46828150  0.96529773  0.02591904    -0.88900
O257        O  0.52910831  0.02592441  0.02538931    -0.92500
C258        C  0.57452824  0.99124460  0.07272410     1.02200
C259        C  0.42304629  0.99718543  0.07214193     1.02000
C260        C  0.50243048  0.07253446  0.07116075     1.01900
C261        C  0.49525302  0.91923516  0.07268745     0.99800
H262        H  0.45595740  0.03824663  0.03760023     0.29500
O263        O  0.46817200  0.02550684  0.02524111    -1.01300
H264        H  0.54174748  0.95234133  0.03833162     0.29600
O265        O  0.52972122  0.96527186  0.02599015    -1.03800
O266        O  0.41421777  0.99295024  0.94515572    -0.81100
O267        O  0.58507387  0.99722006  0.94662524    -0.80600
O268        O  0.44966527  0.07965989  0.99439320    -0.79000
O269        O  0.45138952  0.90970061  0.99607131    -0.82400
O270        O  0.54700959  0.91085607  0.99458507    -0.80200
O271        O  0.54666431  0.08097428  0.99626210    -0.78900
O272        O  0.49690388  0.04359202  0.90966356    -0.80400
O273        O  0.50251348  0.94608056  0.91084710    -0.82300
O274        O  0.49669585  0.08007179  0.94520450    -0.79100
O275        O  0.50077040  0.91016089  0.94707067    -0.81700
O276        O  0.41289545  0.04419037  0.99404972    -0.77500
O277        O  0.58373729  0.04602431  0.99787354    -0.77500
O278        O  0.58399765  0.94597029  0.99251954    -0.77200
O279        O  0.41426038  0.94481995  0.99571648    -0.80600
O280        O  0.45141649  0.99191839  0.90998828    -0.80100
O281        O  0.54830348  0.99692218  0.91114974    -0.78400
Eu282      Eu  0.43763673  0.99486714  0.99512877     2.39800
Eu283      Eu  0.56035154  0.99584909  0.99579401     2.39600
Eu284      Eu  0.49848142  0.05555912  0.99471636     2.38400
Eu285      Eu  0.49905658  0.93538846  0.99595763     2.39900
Eu286      Eu  0.49949200  0.99508086  0.93524535     2.39800
O287        O  0.52977765  0.96543017  0.96586977    -0.92800
O288        O  0.46823953  0.02507797  0.96474530    -0.91700
C289        C  0.42379642  0.99133871  0.91791954     1.02400
C290        C  0.57582713  0.99785894  0.91929736     1.01100
C291        C  0.42209455  0.07155940  0.99410071     1.00500
C292        C  0.42380997  0.91757098  0.99620167     1.02500
C293        C  0.57450724  0.91869011  0.99261349     1.01400
C294        C  0.57434514  0.07338304  0.99759114     1.00200
C295        C  0.49585338  0.07121614  0.91770709     1.00300
C296        C  0.50250606  0.91861109  0.91951720     1.02900
H297        H  0.54187321  0.03868539  0.95258308     0.30300
O298        O  0.52977795  0.02586526  0.96501603    -1.05000
H299        H  0.45687201  0.95182831  0.95276414     0.32300
O300        O  0.46874416  0.96478996  0.96519361    -1.07500
N301        N  0.49858752  0.23212912  0.22982938    -0.03400
C302        C  0.49195686  0.26155587  0.22677291    -0.00900
C303        C  0.49457589  0.27598874  0.25394221    -0.23700
C304        C  0.50273350  0.25481179  0.27444889    -0.23900
C305        C  0.50542467  0.22820843  0.25907794    -0.01000
H306        H  0.49154830  0.29955419  0.25827611     0.12800
H307        H  0.50607637  0.25837641  0.29811921     0.12900
N308        N  0.49575759  0.75865648  0.23093011    -0.03400
C309        C  0.49773564  0.72856730  0.22787306    -0.00900
C310        C  0.49856334  0.71483614  0.25555623    -0.23700
C311        C  0.49740132  0.73707421  0.27646413    -0.23900
C312        C  0.49577882  0.76352582  0.26080650    -0.01000
H313        H  0.49967619  0.69110916  0.25999020     0.12800
H314        H  0.49781646  0.73434201  0.30048791     0.12900
N315        N  0.50132377  0.76075077  0.75949330    -0.03400
C316        C  0.50337228  0.73075422  0.76339071    -0.00900
C317        C  0.49973699  0.71598533  0.73658919    -0.23700
C318        C  0.49470280  0.73744754  0.71539321    -0.23900
C319        C  0.49543411  0.76459121  0.72999955    -0.01000
H320        H  0.49985261  0.69209041  0.73305840     0.12800
H321        H  0.49077106  0.73371386  0.69183878     0.12900
N322        N  0.48886649  0.23087906  0.75845064    -0.03400
C323        C  0.48635438  0.26089078  0.76212295    -0.00900
C324        C  0.49013810  0.27555598  0.73518461    -0.23700
C325        C  0.49500592  0.25405858  0.71406305    -0.23900
C326        C  0.49419147  0.22704078  0.72883941    -0.01000
H327        H  0.49020128  0.29943354  0.73149346     0.12800
H328        H  0.49891210  0.25767347  0.69046731     0.12900
O329        O  0.99338958  0.41260876  0.04819069    -0.80100
O330        O  0.99953405  0.58279059  0.03955850    -0.81700
O331        O  0.04482092  0.49706045  0.07937900    -0.78700
O332        O  0.94760343  0.50200504  0.07843180    -0.77100
O333        O  0.91167071  0.50029051  0.04233763    -0.78800
O334        O  0.08122087  0.49552619  0.04360118    -0.79800
O335        O  0.99800346  0.54705986  0.07610731    -0.81100
O336        O  0.99360436  0.45138558  0.08148901    -0.81400
Eu337      Eu  0.99640148  0.49795292  0.05371279     2.39200
O338        O  0.96750744  0.52799883  0.02199648    -0.88900
O339        O  0.02614835  0.46520813  0.02582270    -0.92500
C340        C  0.99252303  0.42346007  0.07494190     1.02200
C341        C  0.99910710  0.57432791  0.06722651     1.02000
C342        C  0.07238297  0.49669239  0.07104384     1.01900
C343        C  0.92014936  0.50247959  0.06986011     0.99800
H344        H  0.04069805  0.53893374  0.03478458     0.29500
O345        O  0.02787601  0.52647281  0.02278145    -1.01300
H346        H  0.95240408  0.45561566  0.03837651     0.29600
O347        O  0.96549749  0.46671050  0.02532366    -1.03800
O348        O  0.00026794  0.57764169  0.93970138    -0.81100
O349        O  0.99385909  0.40681414  0.94945245    -0.80600
O350        O  0.08337697  0.54103527  0.99093008    -0.79000
O351        O  0.91365285  0.54568778  0.99275400    -0.82400
O352        O  0.91019041  0.44910884  0.99467324    -0.80200
O353        O  0.08043956  0.44503509  0.99960358    -0.78900
O354        O  0.04737118  0.48835944  0.90941450    -0.80400
O355        O  0.94933405  0.49529630  0.90810211    -0.82300
O356        O  0.08294669  0.48899799  0.94595284    -0.79100
O357        O  0.91288364  0.49751032  0.94369315    -0.81700
O358        O  0.04932557  0.57905206  0.98906445    -0.77500
O359        O  0.04463358  0.40865720  0.00122116    -0.77500
O360        O  0.94472705  0.41159364  0.99824467    -0.77200
O361        O  0.94980372  0.58175528  0.98972818    -0.80600
O362        O  0.00073228  0.53889513  0.90635521    -0.80100
O363        O  0.99324225  0.44200263  0.91220782    -0.78400
Eu364      Eu  0.99893315  0.55653498  0.99077586     2.39800
Eu365      Eu  0.99538222  0.43374877  0.99726950     2.39600
Eu366      Eu  0.05707065  0.49354357  0.99431098     2.38400
Eu367      Eu  0.93686686  0.49665603  0.99324198     2.39900
Eu368      Eu  0.99789599  0.49192481  0.93369798     2.39800
O369        O  0.96649723  0.46378649  0.96503334    -0.92800
O370        O  0.02840187  0.52344546  0.96232235    -0.91700
C371        C  0.00060876  0.56688224  0.91287511     1.02400
C372        C  0.99229710  0.41487669  0.92179731     1.01100
C373        C  0.07633799  0.56887258  0.98947925     1.00500
C374        C  0.92234669  0.57301157  0.99133182     1.02500
C375        C  0.91758547  0.42142098  0.99721355     1.01400
C376        C  0.07208086  0.41766211  0.00178019     1.00200
C377        C  0.07477755  0.48738637  0.91834284     1.00300
C378        C  0.92175035  0.49758675  0.91622267     1.02900
H379        H  0.03903542  0.44834969  0.95388270     0.30300
O380        O  0.02681253  0.46178498  0.96550588    -1.05000
H381        H  0.95642701  0.53714674  0.94890792     0.32300
O382        O  0.96834943  0.52490429  0.96203876    -1.07500
N383        N  0.76430897  0.50795560  0.23242821    -0.03400
C384        C  0.73430456  0.50860309  0.22841851    -0.00900
C385        C  0.71949959  0.50664517  0.25541301    -0.23700
C386        C  0.74095123  0.50388880  0.27693382    -0.23900
C387        C  0.76810103  0.50455429  0.26233825    -0.01000
H388        H  0.69561392  0.50644623  0.25891814     0.12800
H389        H  0.73721782  0.50122266  0.30068358     0.12900
N390        N  0.23382178  0.49850700  0.22689720    -0.03400
C391        C  0.26283291  0.49078603  0.22311879    -0.00900
C392        C  0.27784575  0.49151146  0.25002578    -0.23700
C393        C  0.25739003  0.49954000  0.27128705    -0.23900
C394        C  0.23063341  0.50382069  0.25659809    -0.01000
H395        H  0.30128287  0.48706880  0.25367922     0.12800
H396        H  0.26143419  0.50152384  0.29503601     0.12900
N397        N  0.23573784  0.47583668  0.76108316    -0.03400
C398        C  0.23159587  0.47419612  0.73110512    -0.00900
C399        C  0.25854793  0.47442712  0.71614811    -0.23700
C400        C  0.28020038  0.47702730  0.73749082    -0.23900
C401        C  0.26565777  0.47801128  0.76467096    -0.01000
H402        H  0.26194142  0.47415907  0.69220140     0.12800
H403        H  0.30396441  0.47882819  0.73364201     0.12900
N404        N  0.76453029  0.51489203  0.75666997    -0.03400
C405        C  0.76748857  0.51938924  0.72678230    -0.00900
C406        C  0.73981028  0.51973838  0.71317571    -0.23700
C407        C  0.71909136  0.51541700  0.73531248    -0.23900
C408        C  0.73480097  0.51240687  0.76162284    -0.01000
H409        H  0.73525521  0.52184187  0.68952961     0.12800
H410        H  0.69516463  0.51403808  0.73251015     0.12900
N411        N  0.26236800  0.26097822  0.99503088    -0.03400
C412        C  0.26548757  0.23079266  0.99307746    -0.00900
C413        C  0.23806737  0.21686552  0.99472064    -0.23700
C414        C  0.21728310  0.23889074  0.99854267    -0.23900
C415        C  0.23261022  0.26562277  0.99886799    -0.01000
H416        H  0.23379307  0.19309857  0.99412073     0.12800
H417        H  0.19350254  0.23578053  0.00131391     0.12900
O418        O  0.50098878  0.44552618  0.08006855    -0.80100
O419        O  0.50148788  0.44433902  0.90913861    -0.81700
O420        O  0.45189769  0.40920690  0.99557407    -0.78700
O421        O  0.54965541  0.40958414  0.99568117    -0.77100
O422        O  0.58583508  0.44551287  0.99543112    -0.78800
O423        O  0.41628667  0.44563115  0.99463278    -0.79800
O424        O  0.49985189  0.40949781  0.94664363    -0.81100
O425        O  0.49869845  0.41025947  0.04299650    -0.81400
Eu426      Eu  0.50089004  0.43461700  0.99474696     2.39200
O427        O  0.53161523  0.46390029  0.96376568    -0.88900
O428        O  0.47119482  0.46506666  0.02519445    -0.92500
C429        C  0.49923364  0.41833768  0.07052049     1.02200
C430        C  0.49998028  0.41720885  0.91895186     1.02000
C431        C  0.42442328  0.41794888  0.99492585     1.01900
C432        C  0.57715974  0.41806410  0.99580104     0.99800
H433        H  0.45858260  0.45194105  0.95168389     0.29500
O434        O  0.47116514  0.46453185  0.96379362    -1.01300
H435        H  0.54366493  0.45208691  0.03791729     0.29600
O436        O  0.53127309  0.46448856  0.02547698    -1.03800
O437        O  0.50219323  0.54432211  0.90911236    -0.81100
O438        O  0.50165313  0.54520532  0.07922698    -0.80600
O439        O  0.41697982  0.49421615  0.94584168    -0.79000
O440        O  0.58670627  0.49411653  0.94641018    -0.82400
O441        O  0.58628364  0.49564813  0.04247120    -0.80200
O442        O  0.41643975  0.49286114  0.04277874    -0.78900
O443        O  0.45283744  0.57987481  0.99246895    -0.80400
O444        O  0.55073721  0.57943151  0.99421739    -0.82300
O445        O  0.41664953  0.54393100  0.99367702    -0.79100
O446        O  0.58669112  0.54323597  0.99340175    -0.81700
O447        O  0.45220118  0.49382934  0.90870926    -0.77500
O448        O  0.45140925  0.49375535  0.08004046    -0.77500
O449        O  0.55118886  0.49743087  0.07926024    -0.77200
O450        O  0.55171325  0.49416812  0.90924596    -0.80600
O451        O  0.50229076  0.57947070  0.94619926    -0.80100
O452        O  0.50200630  0.58008053  0.04182412    -0.78400
Eu453      Eu  0.50175545  0.49426016  0.93281959     2.39800
Eu454      Eu  0.50123706  0.49522963  0.05593791     2.39600
Eu455      Eu  0.44128008  0.49480767  0.99438950     2.38400
Eu456      Eu  0.56129098  0.49441900  0.99440668     2.39900
Eu457      Eu  0.50158396  0.55459583  0.99410284     2.39800
O458        O  0.53162180  0.52492748  0.02496777    -0.92800
O459        O  0.47149090  0.52459200  0.96346243    -0.91700
C460        C  0.50240113  0.57162540  0.91859392     1.02400
C461        C  0.50215270  0.57239745  0.06950605     1.01100
C462        C  0.42493554  0.49364249  0.91819490     1.00500
C463        C  0.57896200  0.49440398  0.91873359     1.02500
C464        C  0.57854993  0.49705222  0.07013914     1.01400
C465        C  0.42421535  0.49222589  0.07045551     1.00200
C466        C  0.42531509  0.57140020  0.99255550     1.00300
C467        C  0.57823308  0.57079596  0.99377614     1.02900
H468        H  0.45836104  0.53789033  0.03725229     0.30300
O469        O  0.47094574  0.52528166  0.02509871    -1.05000
H470        H  0.54434402  0.53697489  0.95127617     0.32300
O471        O  0.53169595  0.52452781  0.96352890    -1.07500
N472        N  0.73483646  0.73236478  0.98464593    -0.03400
C473        C  0.72921887  0.76152701  0.97849545    -0.00900
C474        C  0.75528423  0.77715243  0.97365662    -0.23700
C475        C  0.77802217  0.75713549  0.97682685    -0.23900
C476        C  0.76508423  0.73000202  0.98381734    -0.01000
H477        H  0.75745011  0.80066641  0.96852981     0.12800
H478        H  0.80156588  0.76180249  0.97425107     0.12900
N479        N  0.26532555  0.72883997  0.98353695    -0.03400
C480        C  0.26883994  0.75885658  0.98539813    -0.00900
C481        C  0.24182353  0.77325763  0.98197643    -0.23700
C482        C  0.22073452  0.75145068  0.97838738    -0.23900
C483        C  0.23556160  0.72445586  0.97974446    -0.01000
H484        H  0.23787871  0.79708409  0.98253008     0.12800
H485        H  0.19696405  0.75483351  0.97595654     0.12900
N486        N  0.73258004  0.26055641  0.02843874    -0.03400
C487        C  0.76210584  0.26588097  0.03240351    -0.00900
C488        C  0.77600123  0.24074066  0.04367579    -0.23700
C489        C  0.75426748  0.21936297  0.04713745    -0.23900
C490        C  0.72786521  0.23212472  0.03770228    -0.01000
H491        H  0.79956884  0.23800302  0.04806946     0.12800
H492        H  0.75760861  0.19651718  0.05425116     0.12900
C493        C  0.68658680  0.31899057  0.98923057    -0.11400
C494        C  0.66563742  0.32579174  0.01152887     0.15200
C495        C  0.66602325  0.30968130  0.03863004     0.02100
C496        C  0.68815864  0.28827038  0.04335347    -0.15700
C497        C  0.70965136  0.28193998  0.02144626    -0.10500
C498        C  0.70832051  0.29695047  0.99371817     0.08800
C499        C  0.64406146  0.35017169  0.00621608     0.09800
S500        S  0.63927484  0.31563127  0.06822073    -0.24800
H501        H  0.68892586  0.27659308  0.06451433     0.20100
S502        S  0.73279068  0.28848893  0.96290563    -0.30500
H503        H  0.68595280  0.33094344  0.96817854     0.10400
C504        C  0.64739588  0.37821548  0.02001019     0.03600
C505        C  0.62554454  0.40017717  0.01567900    -0.12800
C506        C  0.60053425  0.39479813  0.99753873    -0.08500
C507        C  0.59810186  0.36707590  0.98259015     0.07100
C508        C  0.61965915  0.34499116  0.98740001    -0.13600
S509        S  0.67955363  0.38602815  0.04301101    -0.30500
H510        H  0.62763291  0.42144028  0.02696947     0.11300
S511        S  0.56883353  0.35889940  0.95622259    -0.27600
H512        H  0.61746729  0.32359301  0.97634247     0.08500
H513        H  0.74125372  0.25991507  0.97262671     0.27000
H514        H  0.67149472  0.41533535  0.05089510     0.21800
H515        H  0.56748866  0.38794987  0.94429908     0.27100
H516        H  0.61567082  0.32520596  0.04995874     0.15900
C517        C  0.38111389  0.64153837  0.97343372    -0.11400
C518        C  0.35634880  0.63862515  0.99242783     0.15200
C519        C  0.35416975  0.61316751  0.01104685     0.02100
C520        C  0.37704648  0.59182030  0.01068983    -0.15700
C521        C  0.40186903  0.59474787  0.99170352    -0.10500
C522        C  0.40355042  0.61979712  0.97250093     0.08800
C523        C  0.33281328  0.66194857  0.99100392     0.09800
S524        S  0.32285972  0.60609601  0.03547879    -0.24800
H525        H  0.37539234  0.57262211  0.02535540     0.20100
S526        S  0.43266029  0.62451926  0.94503670    -0.30500
H527        H  0.38261368  0.66066485  0.95865967     0.10400
C528        C  0.32860749  0.68298653  0.01408115     0.03600
C529        C  0.30629908  0.70488052  0.01116914    -0.12800
C530        C  0.28847332  0.70651417  0.98542664    -0.08500
C531        C  0.29388283  0.68639247  0.96177470     0.07100
C532        C  0.31544410  0.66403388  0.96504343    -0.13600
S533        S  0.35218860  0.68250337  0.04674772    -0.30500
H534        H  0.30249809  0.72074127  0.02898871     0.11300
S535        S  0.27548793  0.68938041  0.92615704    -0.27600
H536        H  0.31928213  0.64854143  0.94685041     0.08500
H537        H  0.43491274  0.59402599  0.93789702     0.27000
H538        H  0.33956577  0.70761234  0.06076224     0.21800
H539        H  0.27157777  0.72050617  0.92721708     0.27100
H540        H  0.30193195  0.62409297  0.02067677     0.15900
C541        C  0.62300060  0.64143764  0.00964119    -0.11400
C542        C  0.64642063  0.63876770  0.98897386     0.15200
C543        C  0.64790135  0.61305411  0.97074026     0.02100
C544        C  0.62548362  0.59128461  0.97281891    -0.15700
C545        C  0.60179409  0.59410727  0.99324450    -0.10500
C546        C  0.60102843  0.61930084  0.01228709     0.08800
C547        C  0.66912971  0.66293822  0.98741947     0.09800
S548        S  0.67779202  0.60665792  0.94447004    -0.24800
H549        H  0.62650140  0.57197643  0.95827278     0.20100
S550        S  0.57352116  0.62381640  0.04139216    -0.30500
H551        H  0.62207799  0.66078062  0.02414161     0.10400
C552        C  0.66989091  0.68358556  0.96365866     0.03600
C553        C  0.69185923  0.70595583  0.96327610    -0.12800
C554        C  0.71288726  0.70866258  0.98642310    -0.08500
C555        C  0.71151823  0.68823768  0.01060884     0.07100
C556        C  0.68993255  0.66558609  0.01062051    -0.13600
S557        S  0.64250523  0.68185311  0.93415365    -0.30500
H558        H  0.69283434  0.72147798  0.94477010     0.11300
S559        S  0.73540714  0.69020340  0.04285533    -0.27600
H560        H  0.68907581  0.65000843  0.02914221     0.08500
H561        H  0.57144532  0.59326797  0.04840294     0.27000
H562        H  0.65185283  0.70765161  0.91884434     0.21800
H563        H  0.74125620  0.72074274  0.04069126     0.27100
H564        H  0.69993517  0.62203688  0.96045710     0.15900
C565        C  0.32848550  0.30813281  0.97208898    -0.11400
C566        C  0.33086762  0.32767924  0.99644713     0.15200
C567        C  0.31001480  0.32531153  0.02005082     0.02100
C568        C  0.28794092  0.30313429  0.01907922    -0.15700
C569        C  0.28562053  0.28339059  0.99482173    -0.10500
C570        C  0.30601189  0.28637112  0.97078391     0.08800
C571        C  0.35513827  0.35038989  0.99628387     0.09800
S572        S  0.31039642  0.34962535  0.05216398    -0.24800
H573        H  0.27239847  0.30111951  0.03751527     0.20100
S574        S  0.30402483  0.26437926  0.93711158    -0.30500
H575        H  0.34409645  0.31014580  0.95368790     0.10400
C576        C  0.38209616  0.34595022  0.01183844     0.03600
C577        C  0.40441668  0.36811079  0.01095183    -0.12800
C578        C  0.40056269  0.39462148  0.99440709    -0.08500
C579        C  0.37379774  0.39829004  0.97792717     0.07100
C580        C  0.35141101  0.37647029  0.97939744    -0.13600
S581        S  0.38809179  0.31186400  0.03252941    -0.30500
H582        H  0.42479653  0.36492826  0.02350358     0.11300
S583        S  0.36735530  0.42941664  0.95318951    -0.27600
H584        H  0.33101060  0.37960996  0.96682134     0.08500
H585        H  0.27368861  0.25707208  0.93914387     0.27000
H586        H  0.41845080  0.31679244  0.03862006     0.21800
H587        H  0.39674196  0.43031933  0.94215081     0.27100
H588        H  0.32402857  0.37422327  0.03829358     0.15900
C589        C  0.69316241  0.52483104  0.83374915    -0.11400
C590        C  0.67781417  0.49766888  0.83612209     0.15200
C591        C  0.68508366  0.47400177  0.81661433     0.02100
C592        C  0.70635653  0.47859917  0.79421992    -0.15700
C593        C  0.71995969  0.50651973  0.79038804    -0.10500
C594        C  0.71384922  0.52962628  0.81086831     0.08800
C595        C  0.65257975  0.49588972  0.85725797     0.09800
S596        S  0.66675441  0.43818629  0.81782741    -0.24800
H597        H  0.71079531  0.46090739  0.77831107     0.20100
S598        S  0.72993656  0.56627447  0.80765191    -0.30500
H599        H  0.68770789  0.54297755  0.84880574     0.10400
C600        C  0.65441290  0.47960134  0.88404943     0.03600
C601        C  0.62978242  0.47904070  0.90334154    -0.12800
C602        C  0.60358319  0.49508550  0.89675396    -0.08500
C603        C  0.60236928  0.51232405  0.87031978     0.07100
C604        C  0.62657368  0.51197492  0.85061246    -0.13600
S605        S  0.68836784  0.46036220  0.89406851    -0.30500
H606        H  0.63098378  0.46615065  0.92378054     0.11300
S607        S  0.57182427  0.53702254  0.86156299    -0.27600
H608        H  0.62553583  0.52511630  0.83029221     0.08500
H609        H  0.72538617  0.56856808  0.77666770     0.27000
H610        H  0.67887038  0.45053469  0.92238498     0.21800
H611        H  0.56797558  0.54719895  0.89106797     0.27100
H612        H  0.63858200  0.44902870  0.82629885     0.15900
C613        C  0.30933262  0.46336538  0.83487878    -0.11400
C614        C  0.32556779  0.49007104  0.83686383     0.15200
C615        C  0.31864949  0.51401390  0.81750970     0.02100
C616        C  0.29639748  0.51031262  0.79609210    -0.15700
C617        C  0.28171885  0.48292858  0.79274800    -0.10500
C618        C  0.28782373  0.45939069  0.81267713     0.08800
C619        C  0.35088032  0.49136771  0.85781861     0.09800
S620        S  0.33856174  0.54903668  0.81740275    -0.24800
H621        H  0.29199828  0.52824140  0.78041290     0.20100
S622        S  0.27069633  0.42322365  0.80933194    -0.30500
H623        H  0.31460304  0.44497629  0.84971419     0.10400
C624        C  0.35033975  0.50985711  0.88318520     0.03600
C625        C  0.37521490  0.51060907  0.90199164    -0.12800
C626        C  0.40042707  0.49280823  0.89631178    -0.08500
C627        C  0.40050684  0.47361430  0.87127374     0.07100
C628        C  0.37593565  0.47347610  0.85207966    -0.13600
S629        S  0.31765930  0.53169941  0.89216820    -0.30500
H630        H  0.37494502  0.52494400  0.92146004     0.11300
S631        S  0.43021144  0.44756438  0.86356074    -0.27600
H632        H  0.37608111  0.45891048  0.83274949     0.08500
H633        H  0.27473693  0.42129783  0.77823186     0.27000
H634        H  0.32973870  0.54654082  0.91705062     0.21800
H635        H  0.43525781  0.44003340  0.89364249     0.27100
H636        H  0.36615215  0.53762103  0.82687754     0.15900
C637        C  0.35130691  0.46925109  0.10674784    -0.11400
C638        C  0.35011683  0.48858874  0.13123667     0.15200
C639        C  0.37462362  0.50758110  0.13712684     0.02100
C640        C  0.39892665  0.50803544  0.11739286    -0.15700
C641        C  0.39973154  0.48920531  0.09237464    -0.10500
C642        C  0.37593146  0.46897251  0.08763000     0.08800
C643        C  0.32360410  0.48740933  0.15091843     0.09800
S644        S  0.37626788  0.53153785  0.16946006    -0.24800
H645        H  0.41715552  0.52338821  0.12141539     0.20100
S646        S  0.37603555  0.44140181  0.05828704    -0.30500
H647        H  0.33300221  0.45398395  0.10270553     0.10400
C648        C  0.30347098  0.51150404  0.15322082     0.03600
C649        C  0.28099926  0.51069193  0.17507142    -0.12800
C650        C  0.27845370  0.48627010  0.19450893    -0.08500
C651        C  0.29679497  0.46102466  0.19014814     0.07100
C652        C  0.31920294  0.46188223  0.16847737    -0.13600
S653        S  0.30709835  0.54365398  0.12912935    -0.30500
H654        H  0.26685322  0.52997225  0.17848641     0.11300
S655        S  0.29374991  0.42776801  0.21271861    -0.27600
H656        H  0.33415992  0.44301270  0.16615915     0.08500
H657        H  0.40693069  0.43600568  0.05952564     0.27000
H658        H  0.28413242  0.56062558  0.14218975     0.21800
H659        H  0.26388957  0.43220581  0.22126542     0.27100
H660        H  0.36041624  0.51235922  0.18862894     0.15900
C661        C  0.62348037  0.50211688  0.14263711    -0.11400
C662        C  0.65215709  0.50741595  0.13136993     0.15200
C663        C  0.65678639  0.50806790  0.10031899     0.02100
C664        C  0.63254016  0.50392751  0.08122934    -0.15700
C665        C  0.60334597  0.49914347  0.09225563    -0.10500
C666        C  0.59918538  0.49763187  0.12366903     0.08800
C667        C  0.67679814  0.51045389  0.15290590     0.09800
S668        S  0.69293992  0.51438073  0.08367175    -0.24800
H669        H  0.63671068  0.50507321  0.05741518     0.20100
S670        S  0.56416002  0.48923690  0.14155354    -0.30500
H671        H  0.62013835  0.50085202  0.16660462     0.10400
C672        C  0.67763294  0.53451838  0.17306328     0.03600
C673        C  0.69835430  0.53415836  0.19629965    -0.12800
C674        C  0.71816897  0.51020769  0.19989858    -0.08500
C675        C  0.71806126  0.48658336  0.17901047     0.07100
C676        C  0.69764895  0.48724936  0.15542491    -0.13600
S677        S  0.65177229  0.56528278  0.16971531    -0.30500
H678        H  0.69845541  0.55208468  0.21252507     0.11300
S679        S  0.74112995  0.45376902  0.18244826    -0.27600
H680        H  0.69669630  0.46860632  0.14003553     0.08500
H681        H  0.55793050  0.46486192  0.12293786     0.27000
H682        H  0.65930274  0.57947157  0.19670339     0.21800
H683        H  0.74227150  0.45329632  0.21380555     0.27100
H684        H  0.70429512  0.53230609  0.10677469     0.15900
C685        C  0.85165031  0.61453505  0.01082075    -0.11400
C686        C  0.84965742  0.63461981  0.98696045     0.15200
C687        C  0.87261600  0.63555511  0.96531728     0.02100
C688        C  0.89668207  0.61578107  0.96767089    -0.15700
C689        C  0.89857620  0.59557140  0.99153032    -0.10500
C690        C  0.87590928  0.59525062  0.01353583     0.08800
C691        C  0.82542287  0.65677817  0.98767256     0.09800
S692        S  0.87250182  0.66125481  0.93424887    -0.24800
H693        H  0.91383706  0.61587894  0.95058357     0.20100
S694        S  0.87688684  0.57150987  0.04612981    -0.30500
H695        H  0.83448536  0.61445700  0.02790684     0.10400
C696        C  0.80028825  0.65518694  0.96887213     0.03600
C697        C  0.77921166  0.67839770  0.96954339    -0.12800
C698        C  0.78312539  0.70296892  0.98859181    -0.15700
C699        C  0.80764671  0.70347843  0.00849538     0.07100
C700        C  0.82835096  0.68039903  0.00777463    -0.13600
S701        S  0.79569129  0.62427138  0.94347292    -0.30500
H702        H  0.76065598  0.67826697  0.95409161     0.11300
S703        S  0.81490335  0.73330012  0.03470691    -0.27600
H704        H  0.84751640  0.68125512  0.02249935     0.08500
H705        H  0.90803528  0.56877040  0.04749748     0.27000
H706        H  0.76757746  0.63285855  0.93248335     0.21800
H707        H  0.78589703  0.74485277  0.03625911     0.27100
H708        H  0.85757465  0.68466335  0.94883136     0.15900
C709        C  0.86808068  0.35796085  0.02418459    -0.11400
C710        C  0.84320509  0.36122726  0.00554464     0.15200
C711        C  0.84307949  0.38396490  0.98371657     0.02100
C712        C  0.86783727  0.40292251  0.98111606    -0.15700
C713        C  0.89279683  0.39975183  0.99990275    -0.10500
C714        C  0.89265257  0.37701704  0.02183965     0.08800
C715        C  0.81888949  0.33912211  0.00863786     0.09800
S716        S  0.81250913  0.38939096  0.95812745    -0.24800
H717        H  0.86763212  0.42031623  0.96426678     0.20100
S718        S  0.92241073  0.37182638  0.04839089    -0.30500
H719        H  0.86824298  0.34042806  0.04089210     0.10400
C720        C  0.81985336  0.31212839  0.99266933     0.03600
C721        C  0.79991816  0.28923400  0.00008950    -0.12800
C722        C  0.77880062  0.29279108  0.02302361    -0.08500
C723        C  0.77705128  0.32037001  0.03824556     0.07100
C724        C  0.79704344  0.34328543  0.03074871    -0.13600
S725        S  0.84759522  0.30631152  0.96394580    -0.30500
H726        H  0.80129318  0.26802049  0.98858394     0.11300
S727        S  0.75150475  0.32726107  0.06864316    -0.27600
H728        H  0.79656502  0.36399653  0.04323418     0.08500
H729        H  0.92727542  0.40244509  0.05301933     0.27000
H730        H  0.83905521  0.27707473  0.95639101     0.21800
H731        H  0.74864503  0.29754853  0.07823606     0.27100
H732        H  0.79004731  0.37845108  0.97710317     0.15900
C733        C  0.12662170  0.63635425  0.00140311    -0.11400
C734        C  0.15165563  0.62818444  0.98440646     0.15200
C735        C  0.15197747  0.60036286  0.96975777     0.02100
C736        C  0.12681446  0.58200336  0.97119663    -0.15700
C737        C  0.10155424  0.59014359  0.98801867    -0.10500
C738        C  0.10189060  0.61740524  0.00391438     0.08800
C739        C  0.17640228  0.64981779  0.98137704     0.09800
S740        S  0.18387505  0.58697434  0.94915478    -0.24800
H741        H  0.12713057  0.56092533  0.95932419     0.20100
S742        S  0.07242360  0.62850777  0.02902397    -0.30500
H743        H  0.12653370  0.65753229  0.01309348     0.10400
C744        C  0.17958373  0.66727579  0.95539780     0.03600
C745        C  0.20105636  0.68996833  0.95470033    -0.12800
C746        C  0.21931622  0.69576575  0.97949300    -0.08500
C747        C  0.21668212  0.67758821  0.00519386     0.07100
C748        C  0.19550275  0.65460403  0.00569309    -0.13600
S749        S  0.15490614  0.66205422  0.92394154    -0.30500
H750        H  0.20270562  0.70432767  0.93528970     0.11300
S751        S  0.23764303  0.68396684  0.03892219    -0.27600
H752        H  0.19289205  0.64123776  0.02571990     0.08500
H753        H  0.06741808  0.59969170  0.04053092     0.27000
H754        H  0.16669946  0.68498115  0.90598552     0.21800
H755        H  0.23722042  0.71527027  0.03723130     0.27100
H756        H  0.20544344  0.60139576  0.96676035     0.15900
C757        C  0.12318732  0.35050490  0.99263032    -0.11400
C758        C  0.14752628  0.35919715  0.01032463     0.15200
C759        C  0.14596123  0.38608391  0.02666759     0.02100
C760        C  0.12051996  0.40394049  0.02408644    -0.15700
C761        C  0.09648692  0.39579995  0.00559950    -0.10500
C762        C  0.09784471  0.36852490  0.98991553     0.08800
C763        C  0.17390129  0.33943559  0.01066065     0.09800
S764        S  0.17532466  0.39955224  0.05081242    -0.24800
H765        H  0.11964601  0.42475511  0.03640604     0.20100
S766        S  0.06901680  0.35627881  0.96479630    -0.30500
H767        H  0.12430250  0.32976992  0.98020742     0.10400
C768        C  0.17813556  0.31853696  0.03373736     0.03600
C769        C  0.20001236  0.29645279  0.03049839    -0.12800
C770        C  0.21713502  0.29427281  0.00427068    -0.08500
C771        C  0.21380658  0.31616620  0.98182432     0.07100
C772        C  0.19259410  0.33882124  0.98549886    -0.13600
S773        S  0.15412763  0.31859770  0.06618465    -0.30500
H774        H  0.20244253  0.27947968  0.04756520     0.11300
S775        S  0.23334534  0.31448344  0.94674008    -0.27600
H776        H  0.18910080  0.35479022  0.96763569     0.08500
H777        H  0.06440161  0.38461892  0.95206249     0.27000
H778        H  0.16616665  0.29301292  0.07984084     0.21800
H779        H  0.22780996  0.28391709  0.94240228     0.27100
H780        H  0.19660854  0.37721209  0.04575206     0.15900
C781        C  0.84979222  0.51513067  0.87371859    -0.11400
C782        C  0.85570963  0.50201159  0.84592500     0.15200
C783        C  0.88376965  0.48868377  0.84086318     0.02100
C784        C  0.90487971  0.48812276  0.86390628    -0.15700
C785        C  0.89882347  0.50042279  0.89221646    -0.10500
C786        C  0.87105977  0.51501566  0.89662284     0.08800
C787        C  0.83269662  0.50425747  0.82231455     0.09800
S788        S  0.89397748  0.47149256  0.80583431    -0.24800
H789        H  0.92632582  0.47794569  0.85953949     0.20100
S790        S  0.86203798  0.53593870  0.92983107    -0.30500
H791        H  0.82862458  0.52626567  0.87731957     0.10400
C792        C  0.81212681  0.48113327  0.81688639     0.03600
C793        C  0.78993583  0.48509869  0.79508634    -0.12800
C794        C  0.78791408  0.51172423  0.77859768    -0.08500
C795        C  0.80881648  0.53472031  0.78405184     0.07100
C796        C  0.83093530  0.53067750  0.80568134    -0.13600
S797        S  0.81388263  0.44686043  0.83803210    -0.30500
H798        H  0.77403794  0.46747098  0.79074603     0.11300
S799        S  0.80799018  0.57017264  0.76516173    -0.27600
H800        H  0.84669875  0.54849996  0.80996619     0.08500
H801        H  0.89042290  0.54915442  0.93204468     0.27000
H802        H  0.79166693  0.43160363  0.82196838     0.21800
H803        H  0.77697847  0.57091550  0.76167123     0.27100
H804        H  0.87509493  0.48826840  0.78729965     0.15900
C805        C  0.14635411  0.46559986  0.87729533    -0.11400
C806        C  0.14377077  0.48233553  0.85091074     0.15200
C807        C  0.11777141  0.49953408  0.84623062     0.02100
C808        C  0.09575882  0.50075964  0.86850719    -0.15700
C809        C  0.09847551  0.48442283  0.89520741    -0.10500
C810        C  0.12387755  0.46599061  0.89914966     0.08800
C811        C  0.16820021  0.48080849  0.82844073     0.09800
S812        S  0.11123980  0.52028583  0.81229384    -0.24800
H813        H  0.07629779  0.51465660  0.86493825     0.20100
S814        S  0.12828666  0.44121205  0.93065373    -0.30500
H815        H  0.16586245  0.45171423  0.88065411     0.10400
C816        C  0.18905001  0.50411826  0.82490137     0.03600
C817        C  0.21136218  0.50176512  0.80291273    -0.12800
C818        C  0.21321459  0.47667185  0.78419978    -0.08500
C819        C  0.19278083  0.45296782  0.78845284     0.07100
C820        C  0.17052772  0.45538636  0.81034512    -0.13600
S821        S  0.18735624  0.53673766  0.84850620    -0.30500
H822        H  0.22714964  0.51975612  0.79976099     0.11300
S823        S  0.19418648  0.41862554  0.76752006    -0.27600
H824        H  0.15480458  0.43725623  0.81332598     0.08500
H825        H  0.09785796  0.43389693  0.93300690     0.27000
H826        H  0.21249754  0.55122925  0.83649817     0.21800
H827        H  0.22417887  0.42048493  0.75885110     0.27100
H828        H  0.12718312  0.50120175  0.79315368     0.15900
C829        C  0.14367856  0.51334201  0.11395433    -0.11400
C830        C  0.13956824  0.49614621  0.13984234     0.15200
C831        C  0.11257582  0.48026494  0.14364767     0.02100
C832        C  0.09110249  0.48083972  0.12090905    -0.15700
C833        C  0.09545549  0.49762934  0.09470581    -0.10500
C834        C  0.12182295  0.51471625  0.09170886     0.08800
C835        C  0.16374107  0.49597398  0.16247031     0.09800
S836        S  0.10395246  0.45907689  0.17689647    -0.24800
H837        H  0.07080656  0.46799435  0.12369253     0.20100
S838        S  0.12832320  0.53992487  0.06091301    -0.30500
H839        H  0.16399062  0.52618454  0.11126976     0.10400
C840        C  0.18167351  0.47058802  0.16753764     0.03600
C841        C  0.20485473  0.47203907  0.18861074    -0.12800
C842        C  0.21075416  0.49845232  0.20441328    -0.08500
C843        C  0.19334489  0.52404132  0.19847855     0.07100
C844        C  0.16987363  0.52243509  0.17798627    -0.13600
S845        S  0.17550984  0.43663468  0.14670293    -0.30500
H846        H  0.21835388  0.45253341  0.19308424     0.11300
S847        S  0.20100755  0.55975077  0.21506630    -0.27600
H848        H  0.15660427  0.54218303  0.17361139     0.08500
H849        H  0.09850456  0.54947706  0.05868488     0.27000
H850        H  0.19902986  0.42019264  0.15939642     0.21800
H851        H  0.23206067  0.55555698  0.21595806     0.27100
H852        H  0.12226569  0.47516280  0.19659014     0.15900
C853        C  0.87813286  0.52438218  0.14091667    -0.11400
C854        C  0.85213574  0.50722380  0.13829565     0.15200
C855        C  0.84800761  0.48957497  0.11247413     0.02100
C856        C  0.87033100  0.48868264  0.09048050    -0.15700
C857        C  0.89671537  0.50541178  0.09327833    -0.10500
C858        C  0.90022672  0.52395411  0.11871119     0.08800
C859        C  0.83022737  0.50755864  0.16326044     0.09800
S860        S  0.81506358  0.46723911  0.10652284    -0.24800
H861        H  0.86720049  0.47447295  0.07115196     0.20100
S862        S  0.93182560  0.54831069  0.12395957    -0.30500
H863        H  0.88123068  0.53825658  0.16049626     0.10400
C864        C  0.82895809  0.48423843  0.18437084     0.03600
C865        C  0.80741999  0.48508053  0.20722931    -0.12800
C866        C  0.78719361  0.50893094  0.20962278    -0.08500
C867        C  0.78952139  0.53298431  0.18916329     0.07100
C868        C  0.81073179  0.53184391  0.16613788    -0.13600
S869        S  0.85504750  0.45360261  0.18228855    -0.30500
H870        H  0.80584024  0.46685565  0.22302742     0.11300
S871        S  0.76726072  0.56643659  0.19166753    -0.27600
H872        H  0.81218452  0.55014743  0.15035626     0.08500
H873        H  0.93465209  0.55614340  0.09367566     0.27000
H874        H  0.84476650  0.43834462  0.20776610     0.21800
H875        H  0.75889666  0.56347514  0.22171484     0.27100
H876        H  0.79535101  0.48518759  0.12306073     0.15900
C877        C  0.47304751  0.34749408  0.88018913    -0.11400
C878        C  0.49500613  0.34361993  0.85827248     0.15200
C879        C  0.51812187  0.36492855  0.85543782     0.02100
C880        C  0.51927433  0.38904099  0.87528936    -0.15700
C881        C  0.49735929  0.39271312  0.89731763    -0.10500
C882        C  0.47381134  0.37191824  0.89956706     0.08800
C883        C  0.49093107  0.31911603  0.83665835     0.09800
S884        S  0.54626815  0.36308159  0.82665433    -0.24800
H885        H  0.53731152  0.40504844  0.87353474     0.20100
S886        S  0.44370552  0.37727682  0.92594831    -0.30500
H887        H  0.45489728  0.33160738  0.88156711     0.10400
C888        C  0.51031320  0.29439256  0.83501352     0.03600
C889        C  0.50669583  0.27363409  0.81181274    -0.12800
C890        C  0.48399013  0.27723728  0.79054122    -0.08500
C891        C  0.46318653  0.30076360  0.79387623     0.07100
C892        C  0.46696435  0.32133145  0.81683649    -0.13600
S893        S  0.54007379  0.28982280  0.86174123    -0.30500
H894        H  0.52273729  0.25577640  0.80907401     0.11300
S895        S  0.43206218  0.30709507  0.76900783    -0.27600
H896        H  0.45165676  0.33998756  0.81861964     0.08500
H897        H  0.42807017  0.35085384  0.91948648     0.27000
H898        H  0.54941902  0.26150668  0.85186617     0.21800
H899        H  0.43205316  0.27936547  0.75460900     0.27100
H900        H  0.52797909  0.35025766  0.80465864     0.15900
C901        C  0.48847263  0.62099736  0.85096790    -0.11400
C902        C  0.50555548  0.64612887  0.85850694     0.15200
C903        C  0.52125150  0.64667728  0.88569594     0.02100
C904        C  0.52045156  0.62166567  0.90425641    -0.15700
C905        C  0.50335946  0.59637040  0.89687611    -0.10500
C906        C  0.48669640  0.59637487  0.87014021     0.08800
C907        C  0.50723737  0.67097214  0.83702466     0.09800
S908        S  0.54267182  0.67851741  0.89787549    -0.24800
H909        H  0.53307762  0.62211923  0.92489240     0.20100
S910        S  0.46153157  0.56664759  0.86012407    -0.30500
H911        H  0.47605839  0.62081530  0.83020607     0.10400
C912        C  0.53180241  0.67402367  0.81769071     0.03600
C913        C  0.53090578  0.69567023  0.79517071    -0.12800
C914        C  0.50607478  0.71445307  0.79181513    -0.08500
C915        C  0.48209909  0.71225842  0.81219871     0.07100
C916        C  0.48306376  0.69065062  0.83473452    -0.13600
S917        S  0.56336906  0.64910175  0.82045593    -0.30500
H918        H  0.54893581  0.69704132  0.77909890     0.11300
S919        S  0.44873470  0.73454609  0.80944333    -0.27600
H920        H  0.46427191  0.68825447  0.84980321     0.08500
H921        H  0.45054232  0.56227983  0.88927970     0.27000
H922        H  0.58112373  0.66333830  0.79878111     0.21800
H923        H  0.44755693  0.73524124  0.77809122     0.27100
H924        H  0.52509347  0.70030543  0.88371193     0.15900
C925        C  0.51860556  0.69109268  0.15486856    -0.11400
C926        C  0.49692308  0.66855293  0.15408230     0.15200
C927        C  0.47420765  0.66787167  0.17587682     0.02100
C928        C  0.47411170  0.68939267  0.19827792    -0.15700
C929        C  0.49643940  0.71124816  0.19998665    -0.10500
C930        C  0.51898176  0.71215713  0.17793846     0.08800
C931        C  0.49962414  0.64496350  0.13150073     0.09800
S932        S  0.44601423  0.63909075  0.17818683    -0.24800
H933        H  0.45709141  0.68827875  0.21547961     0.20100
S934        S  0.55011061  0.73756837  0.17911506    -0.30500
H935        H  0.53618390  0.69132670  0.13821955     0.10400
C936        C  0.48340710  0.64635099  0.10471832     0.03600
C937        C  0.48469727  0.62227817  0.08491492    -0.12800
C938        C  0.50229048  0.59704870  0.09122225    -0.08500
C939        C  0.51976301  0.59653215  0.11745348     0.07100
C940        C  0.51779800  0.62026608  0.13759305    -0.13600
S941        S  0.46042300  0.67839547  0.09634466    -0.30500
H942        H  0.47166867  0.62295094  0.06456833     0.11300
S943        S  0.54599773  0.56720834  0.12576609    -0.27600
H944        H  0.53066531  0.61963279  0.15806896     0.08500
H945        H  0.55188100  0.73946475  0.21039447     0.27000
H946        H  0.44617650  0.66613962  0.07120650     0.21800
H947        H  0.55500353  0.56273652  0.09597731     0.27100
H948        H  0.44823082  0.62764483  0.14916401     0.15900
C949        C  0.46585002  0.32090525  0.17324902    -0.11400
C950        C  0.48792356  0.31914514  0.15115383     0.15200
C951        C  0.50838792  0.29515502  0.15165258     0.02100
C952        C  0.50779774  0.27496185  0.17549074    -0.15700
C953        C  0.48673390  0.27776583  0.19851705    -0.10500
C954        C  0.46462764  0.30022522  0.19650431     0.08800
C955        C  0.49073461  0.34428599  0.12991848     0.09800
S956        S  0.53657520  0.28988686  0.12334690    -0.24800
H957        H  0.52502981  0.25808867  0.17689681     0.20100
S958        S  0.43493401  0.30465485  0.22342874    -0.30500
H959        H  0.44999985  0.33917728  0.17293517     0.10400
C960        C  0.46722421  0.35224784  0.11058739     0.03600
C961        C  0.47039289  0.37727326  0.09215690    -0.12800
C962        C  0.49675896  0.39407082  0.09221859    -0.08500
C963        C  0.52070477  0.38541926  0.11060307     0.07100
C964        C  0.51708787  0.36124481  0.12999968    -0.13600
S965        S  0.43380022  0.32985008  0.10824151    -0.30500
H966        H  0.45252317  0.38352048  0.07712328     0.11300
S967        S  0.55686235  0.40288715  0.10881338    -0.27600
H968        H  0.53524262  0.35508696  0.14473029     0.08500
H969        H  0.43484309  0.27495170  0.23343114     0.27000
H970        H  0.41820589  0.34852769  0.08838127     0.21800
H971        H  0.55623407  0.40870856  0.07793028     0.27100
H972        H  0.52043762  0.30339818  0.10005527     0.15900
C973        C  0.61096229  0.15040452  0.99673819    -0.11400
C974        C  0.63774960  0.14473672  0.01176532     0.15200
C975        C  0.64431824  0.11511507  0.02057687     0.02100
C976        C  0.62361284  0.09230678  0.01522629    -0.15700
C977        C  0.59668517  0.09791716  0.00017503    -0.10500
C978        C  0.59101559  0.12739920  0.98996296     0.08800
C979        C  0.65810961  0.17012782  0.01837473     0.09800
S980        S  0.67881102  0.10483686  0.03852819    -0.24800
H981        H  0.62857694  0.06999406  0.02314895     0.20100
S982        S  0.55964753  0.13723693  0.96693142    -0.30500
H983        H  0.60577494  0.17297296  0.98971149     0.10400
C984        C  0.67094406  0.18760006  0.99539482     0.03600
C985        C  0.69175477  0.20979968  0.00272525    -0.12800
C986        C  0.70045368  0.21458032  0.03241065    -0.08500
C987        C  0.68639352  0.19829958  0.05547383     0.07100
C988        C  0.66526571  0.17647720  0.04824134    -0.13600
S989        S  0.66309714  0.18001713  0.95653559    -0.30500
H990        H  0.70290050  0.22202358  0.98509427     0.11300
S991        S  0.69505850  0.20365135  0.09445107    -0.27600
H992        H  0.65491805  0.16369986  0.06601903     0.08500
H993        H  0.56128417  0.11102426  0.94967102     0.27000
H994        H  0.67892583  0.20437961  0.94459111     0.21800
H995        H  0.70618479  0.23283266  0.09171346     0.27100
H996        H  0.69654076  0.12585309  0.02334958     0.15900
C997        C  0.38509112  0.84460889  0.01374533    -0.11400
C998        C  0.36283077  0.84418700  0.99183529     0.15200
C999        C  0.35962108  0.86891036  0.97240882     0.02100
C1000       C  0.37938263  0.89296186  0.97475718    -0.15700
C1001       C  0.40183849  0.89321005  0.99651078    -0.10500
C1002       C  0.40436785  0.86890249  0.01652470     0.08800
C1003       C  0.34182580  0.81882045  0.99169975     0.09800
S1004       S  0.33092089  0.87134480  0.94426734    -0.24800
H1005       H  0.37743829  0.91148351  0.95927730     0.20100
S1006       S  0.43096647  0.86794503  0.04673601    -0.30500
H1007       H  0.38707136  0.82605520  0.02918074     0.10400
C1008       C  0.34149033  0.79728372  0.96872583     0.03600
C1009       C  0.31880672  0.77560992  0.96839488    -0.12800
C1010       C  0.29684897  0.77519071  0.99076765    -0.08500
C1011       C  0.29894456  0.79522350  0.01500544     0.07100
C1012       C  0.32121459  0.81688839  0.01510518    -0.13600
S1013       S  0.36921096  0.79815672  0.93944373    -0.30500
H1014       H  0.31704847  0.76024346  0.94981713     0.11300
S1015       S  0.27295901  0.79512994  0.04581556    -0.27600
H1016       H  0.32194692  0.83300279  0.03314741     0.08500
H1017       H  0.43070417  0.89889135  0.05202494     0.27000
H1018       H  0.35992053  0.77190264  0.92497439     0.21800
H1019       H  0.26574402  0.76466377  0.04382388     0.27100
H1020       H  0.30970108  0.85354893  0.95897345     0.15900
C1021       C  0.64288003  0.86888807  0.99867895    -0.11400
C1022       C  0.63323344  0.84390054  0.98243175     0.15200
C1023       C  0.60467406  0.84380493  0.96946518     0.02100
C1024       C  0.58658003  0.86889345  0.97265183    -0.15700
C1025       C  0.59590572  0.89391414  0.98924030    -0.10500
C1026       C  0.62442461  0.89374241  0.00255712     0.08800
C1027       C  0.65386156  0.81860249  0.97930586     0.09800
S1028       S  0.58995278  0.81262391  0.94858240    -0.24800
H1029       H  0.56478474  0.86873770  0.96219573     0.20100
S1030       S  0.63802681  0.92363965  0.02576641    -0.30500
H1031       H  0.66484242  0.86879685  0.00877569     0.10400
C1032       C  0.66960912  0.81363486  0.95255296     0.03600
C1033       C  0.69242490  0.79235842  0.95214120    -0.12800
C1034       C  0.69997244  0.77638927  0.97803394    -0.08500
C1035       C  0.68291704  0.78024056  0.00425575     0.07100
C1036       C  0.65978962  0.80106097  0.00450450    -0.13600
S1037       S  0.66237855  0.83604510  0.91976875    -0.30500
H1038       H  0.70580390  0.78950353  0.93218103     0.11300
S1039       S  0.69170892  0.76205737  0.03893663    -0.27600
H1040       H  0.64754232  0.80499144  0.02502924     0.08500
H1041       H  0.61072314  0.92827748  0.04058759     0.27000
H1042       H  0.68277291  0.82158500  0.90075791     0.21800
H1043       H  0.72201643  0.77006209  0.03777543     0.27100
H1044       H  0.60738749  0.79025010  0.96193742     0.15900
C1045       C  0.35487686  0.12098695  0.01032995    -0.11400
C1046       C  0.36091301  0.14541395  0.99160609     0.15200
C1047       C  0.38687495  0.14523935  0.97379485     0.02100
C1048       C  0.40582481  0.12049513  0.97464468    -0.15700
C1049       C  0.39995225  0.09599319  0.99339928    -0.10500
C1050       C  0.37424731  0.09648083  0.01173251     0.08800
C1051       C  0.33886070  0.16991540  0.99013469     0.09800
S1052       S  0.39707452  0.17570146  0.94942505    -0.24800
H1053       H  0.42556858  0.12047872  0.96063293     0.20100
S1054       S  0.36555258  0.06742059  0.03825985    -0.30500
H1055       H  0.33498827  0.12114732  0.02412162     0.10400
C1056       C  0.31882785  0.17211571  0.96606488     0.03600
C1057       C  0.29632182  0.19374894  0.96684775    -0.12800
C1058       C  0.29343087  0.21340699  0.99111594    -0.08500
C1059       C  0.31405196  0.21165396  0.01490303     0.07100
C1060       C  0.33673205  0.19012994  0.01397792    -0.13600
S1061       S  0.32070605  0.14616613  0.93523621    -0.30500
H1062       H  0.28004174  0.19463947  0.94901230     0.11300
S1063       S  0.31141577  0.23438869  0.04802011    -0.27600
H1064       H  0.35211287  0.18829115  0.03254631     0.08500
H1065       H  0.39527279  0.06185875  0.04640753     0.27000
H1066       H  0.29944859  0.16049763  0.91712727     0.21800
H1067       H  0.28011352  0.23544858  0.04907529     0.27100
H1068       H  0.38243914  0.19835054  0.96544050     0.15900
C1069       C  0.47970666  0.11228822  0.84425468    -0.11400
C1070       C  0.49332768  0.13995715  0.84957143     0.15200
C1071       C  0.50699344  0.14516210  0.87748688     0.02100
C1072       C  0.50705759  0.12253354  0.89911222    -0.15700
C1073       C  0.49407354  0.09447427  0.89380398    -0.10500
C1074       C  0.47977713  0.08954360  0.86596296     0.08800
C1075       C  0.49243602  0.16297848  0.82570066     0.09800
S1076       S  0.52538624  0.17975871  0.88704829    -0.24800
H1077       H  0.51762867  0.12689692  0.92031139     0.20100
S1078       S  0.46037638  0.05506683  0.85796964    -0.30500
H1079       H  0.46903287  0.10854209  0.82289363     0.10400
C1080       C  0.51635231  0.16708029  0.80567856     0.03600
C1081       C  0.51458047  0.18949260  0.78373480    -0.12800
C1082       C  0.48931862  0.20793650  0.78126292    -0.08500
C1083       C  0.46520876  0.20338598  0.80125883     0.07100
C1084       C  0.46711423  0.18111369  0.82317930    -0.13600
S1085       S  0.54918534  0.14391095  0.80828200    -0.30500
H1086       H  0.53309932  0.19305476  0.76862313     0.11300
S1087       S  0.43103604  0.22442297  0.79984295    -0.27600
H1088       H  0.44862747  0.17781710  0.83845432     0.08500
H1089       H  0.44480351  0.06531995  0.83269706     0.27000
H1090       H  0.56277969  0.15405763  0.78181163     0.21800
H1091       H  0.43243181  0.23066952  0.76928495     0.27100
H1092       H  0.51305828  0.19808579  0.86484255     0.15900
C1093       C  0.52706355  0.80906505  0.82343048    -0.11400
C1094       C  0.50211897  0.82750540  0.82763808     0.15200
C1095       C  0.47736173  0.82439584  0.80838347     0.02100
C1096       C  0.47773665  0.80241309  0.78614659    -0.15700
C1097       C  0.50247970  0.78363772  0.78217185    -0.10500
C1098       C  0.52767683  0.78751626  0.80073707     0.08800
C1099       C  0.50282653  0.85008100  0.85190150     0.09800
S1100       S  0.44460018  0.84763241  0.81106624    -0.24800
H1101       H  0.45845418  0.79971946  0.77186651     0.20100
S1102       S  0.56173524  0.76676767  0.79580441    -0.30500
H1103       H  0.54635804  0.81175261  0.83773953     0.10400
C1104       C  0.48572411  0.84677838  0.87813780     0.03600
C1105       C  0.48644854  0.86920859  0.90001283    -0.12800
C1106       C  0.50382350  0.89505814  0.89620761    -0.08500
C1107       C  0.52156835  0.89795912  0.87015676     0.07100
C1108       C  0.52085670  0.87540903  0.84837195    -0.13600
S1109       S  0.46328313  0.81380154  0.88395947    -0.30500
H1110       H  0.47303179  0.86682707  0.92000392     0.11300
S1111       S  0.54631454  0.92945030  0.86499212    -0.27600
H1112       H  0.53426029  0.87748333  0.82833763     0.08500
H1113       H  0.55812589  0.76181929  0.76501427     0.27000
H1114       H  0.44899431  0.82358623  0.91019171     0.21800
H1115       H  0.55609845  0.92206435  0.83605148     0.27100
H1116       H  0.45915260  0.87319851  0.82189624     0.15900
C1117       C  0.47638553  0.87632971  0.14443410    -0.11400
C1118       C  0.49181988  0.84949278  0.13971482     0.15200
C1119       C  0.50730098  0.84534865  0.11254333     0.02100
C1120       C  0.50795331  0.86835005  0.09130127    -0.15700
C1121       C  0.49295473  0.89553164  0.09604055    -0.10500
C1122       C  0.47637920  0.89911893  0.12284316     0.08800
C1123       C  0.49253121  0.82670911  0.16390748     0.09800
S1124       S  0.52728324  0.81146409  0.10390827    -0.24800
H1125       H  0.52057990  0.86501406  0.07091412     0.20100
S1126       S  0.45374835  0.93153013  0.13042544    -0.30500
H1127       H  0.46413339  0.87948583  0.16508268     0.10400
C1128       C  0.51749102  0.82377168  0.18274530     0.03600
C1129       C  0.51797498  0.80113491  0.20444736    -0.12800
C1130       C  0.49404369  0.78119870  0.20787615    -0.08500
C1131       C  0.46877387  0.78445416  0.18920043     0.07100
C1132       C  0.46832614  0.80717914  0.16753936    -0.13600
S1133       S  0.54882651  0.84881862  0.17904237    -0.30500
H1134       H  0.53740562  0.79841449  0.21843104     0.11300
S1135       S  0.43628068  0.76078002  0.19149226    -0.27600
H1136       H  0.44908392  0.80945029  0.15309325     0.08500
H1137       H  0.44286104  0.93399875  0.10105020     0.27000
H1138       H  0.56371756  0.83965775  0.20513247     0.21800
H1139       H  0.44219921  0.74717101  0.21902798     0.27100
H1140       H  0.50894931  0.79206596  0.12041029     0.15900
C1141       C  0.51270895  0.14822102  0.10993730    -0.11400
C1142       C  0.50437205  0.14126011  0.13929562     0.15200
C1143       C  0.49711991  0.11148220  0.14653865     0.02100
C1144       C  0.49740227  0.08960758  0.12416740    -0.15700
C1145       C  0.50483598  0.09649387  0.09435835    -0.10500
C1146       C  0.51364683  0.12625432  0.08764103     0.08800
C1147       C  0.50343024  0.16545859  0.16190950     0.09800
S1148       S  0.48655849  0.10004885  0.18375508    -0.24800
H1149       H  0.49147072  0.06697981  0.13022345     0.20100
S1150       S  0.52809529  0.13758268  0.05178243    -0.30500
H1151       H  0.51904933  0.17092701  0.10447812     0.10400
C1152       C  0.52922374  0.17416645  0.17762009     0.03600
C1153       C  0.52710888  0.19618623  0.19986498    -0.12800
C1154       C  0.49970401  0.20970219  0.20672233    -0.08500
C1155       C  0.47388002  0.20075545  0.19107483     0.07100
C1156       C  0.47605408  0.17902270  0.16865925    -0.13600
S1157       S  0.56461288  0.15656429  0.16988209    -0.30500
H1158       H  0.54678964  0.20307059  0.21201305     0.11300
S1159       S  0.43739191  0.21514849  0.19971943    -0.27600
H1160       H  0.45613159  0.17205239  0.15689755     0.08500
H1161       H  0.54700789  0.11263986  0.04923741     0.27000
H1162       H  0.58018331  0.16927869  0.19398341     0.21800
H1163       H  0.44297190  0.22007967  0.23021039     0.27100
H1164       H  0.50381663  0.12108726  0.19927379     0.15900
C1165       C  0.31933763  0.02452769  0.16783451    -0.11400
C1166       C  0.34070962  0.00194905  0.17031176     0.15200
C1167       C  0.34045646  0.98284839  0.19542140     0.02100
C1168       C  0.31737793  0.98545631  0.21638495    -0.15700
C1169       C  0.29493895  0.00704144  0.21293057    -0.10500
C1170       C  0.29663880  0.02745297  0.18885373     0.08800
C1171       C  0.36235569  0.99913275  0.14573462     0.09800
S1172       S  0.36790043  0.95396114  0.20124418    -0.24800
H1173       H  0.31603885  0.96948379  0.23452386     0.20100
S1174       S  0.26997423  0.05705323  0.18274648    -0.30500
H1175       H  0.31994110  0.03958337  0.14885752     0.10400
C1176       C  0.35936561  0.97716439  0.12339034     0.03600
C1177       C  0.37886132  0.97745269  0.09883183    -0.12800
C1178       C  0.40104389  0.99937582  0.09634012    -0.08500
C1179       C  0.40343909  0.02165880  0.11856112     0.07100
C1180       C  0.38429025  0.02110477  0.14305854    -0.13600
S1181       S  0.33040952  0.94927076  0.12587082    -0.30500
H1182       H  0.37722385  0.96035107  0.08182700     0.11300
S1183       S  0.42964738  0.05210322  0.11667287    -0.27600
H1184       H  0.38598041  0.03841171  0.15989110     0.08500
H1185       H  0.26031109  0.05945153  0.21247324     0.27000
H1186       H  0.33847614  0.93336372  0.10000333     0.21800
H1187       H  0.43126426  0.05362232  0.08539546     0.27100
H1188       H  0.39067452  0.96673618  0.18385585     0.15900
C1189       C  0.61305432  0.01636197  0.84572369    -0.11400
C1190       C  0.63738543  0.99679992  0.84619338     0.15200
C1191       C  0.64306439  0.97965491  0.87211753     0.02100
C1192       C  0.62309706  0.98094750  0.89612502    -0.15700
C1193       C  0.59810752  0.99974794  0.89519290    -0.10500
C1194       C  0.59372549  0.01845515  0.87009210     0.08800
C1195       C  0.65751994  0.99631436  0.82010545     0.09800
S1196       S  0.67528363  0.95581391  0.87599344    -0.24800
H1197       H  0.62682925  0.96683752  0.91544848     0.20100
S1198       S  0.56460347  0.04621916  0.86818010    -0.30500
H1199       H  0.60934959  0.03039955  0.82634111     0.10400
C1200       C  0.66016258  0.97111922  0.80140592     0.03600
C1201       C  0.68280992  0.97045184  0.77970105    -0.12800
C1202       C  0.70248548  0.99458179  0.77652246    -0.08500
C1203       C  0.69787246  0.02076296  0.79340129     0.07100
C1204       C  0.67549458  0.02132877  0.81502130    -0.13600
S1205       S  0.63554743  0.93954275  0.80606071    -0.30500
H1206       H  0.68651330  0.95044308  0.76664954     0.11300
S1207       S  0.72111158  0.05346157  0.78987642    -0.27600
H1208       H  0.67297557  0.04093521  0.82897704     0.08500
H1209       H  0.56481323  0.05293422  0.89889075     0.27000
H1210       H  0.64725213  0.92240442  0.78247703     0.21800
H1211       H  0.73142732  0.04763942  0.76082576     0.27100
H1212       H  0.69454822  0.97304949  0.85818106     0.15900
C1213       C  0.32197921  0.96146249  0.81817068    -0.11400
C1214       C  0.34107845  0.98614404  0.81959325     0.15200
C1215       C  0.33939859  0.00838130  0.79722554     0.02100
C1216       C  0.31668668  0.00693483  0.77579013    -0.15700
C1217       C  0.29636579  0.98314565  0.77563358    -0.10500
C1218       C  0.30005172  0.95947931  0.79617406     0.08800
C1219       C  0.36198864  0.98796428  0.84504730     0.09800
S1220       S  0.36497680  0.03939333  0.79531120    -0.24800
H1221       H  0.31411105  0.02507094  0.75996695     0.20100
S1222       S  0.27712576  0.92638393  0.79574562    -0.30500
H1223       H  0.32384274  0.94384557  0.83468212     0.10400
C1224       C  0.35791573  0.00864766  0.86848274     0.03600
C1225       C  0.37785287  0.00868838  0.89262705    -0.12800
C1226       C  0.40173587  0.98850059  0.89372892    -0.08500
C1227       C  0.40512993  0.96719804  0.87063546     0.07100
C1228       C  0.38538235  0.96732611  0.84654384    -0.13600
S1229       S  0.32704072  0.03453766  0.86805214    -0.30500
H1230       H  0.37520205  0.02482587  0.91043621     0.11300
S1231       S  0.43351181  0.93861990  0.87097547    -0.27600
H1232       H  0.38807311  0.95099069  0.82888933     0.08500
H1233       H  0.27043827  0.92758370  0.76506140     0.27000
H1234       H  0.33636383  0.05180050  0.89257635     0.21800
H1235       H  0.43378297  0.93494373  0.90218228     0.27100
H1236       H  0.38897467  0.02505436  0.80952279     0.15900
C1237       C  0.48528789  0.13393428  0.36090340    -0.11400
C1238       C  0.50873764  0.13059479  0.34034126     0.15200
C1239       C  0.53091482  0.10892920  0.34565426     0.02100
C1240       C  0.52935530  0.09135054  0.37142203    -0.15700
C1241       C  0.50604033  0.09476681  0.39214512    -0.10500
C1242       C  0.48377101  0.11634946  0.38673815     0.08800
C1243       C  0.51096702  0.15207745  0.31534540     0.09800
S1244       S  0.56141545  0.10235238  0.32019083    -0.24800
H1245       H  0.54627180  0.07445174  0.37512984     0.20100
S1246       S  0.45207255  0.12108042  0.41092080    -0.30500
H1247       H  0.46829790  0.15070067  0.35699862     0.10400
C1248       C  0.48993949  0.15269007  0.29196110     0.03600
C1249       C  0.49016637  0.17657452  0.27167382    -0.12800
C1250       C  0.51131986  0.19949734  0.27418383    -0.08500
C1251       C  0.53425585  0.19698550  0.29565593     0.07100
C1252       C  0.53354013  0.17364017  0.31629258    -0.13600
S1253       S  0.46231247  0.12361964  0.28851854    -0.30500
H1254       H  0.47261023  0.17841250  0.25522351     0.11300
S1255       S  0.56448220  0.22339896  0.29841491    -0.27600
H1256       H  0.55020011  0.17275301  0.33379645     0.08500
H1257       H  0.46949277  0.12606832  0.43651395     0.27000
H1258       H  0.45082011  0.13294637  0.26079002     0.21800
H1259       H  0.56380821  0.23201631  0.26818564     0.27100
H1260       H  0.54584536  0.11039156  0.29414311     0.15900
C1261       C  0.47170869  0.82556769  0.31151937    -0.11400
C1262       C  0.49927777  0.83886198  0.31765157     0.15200
C1263       C  0.52494129  0.82977433  0.30183738     0.02100
C1264       C  0.52273889  0.80648472  0.28128597    -0.15700
C1265       C  0.49533898  0.79257099  0.27579434    -0.10500
C1266       C  0.46951430  0.80254799  0.29071524     0.08800
C1267       C  0.50093309  0.86008270  0.34257774     0.09800
S1268       S  0.56133220  0.84561781  0.30829954    -0.24800
H1269       H  0.54284334  0.79801592  0.27085746     0.20100
S1270       S  0.43377969  0.78509027  0.28566922    -0.30500
H1271       H  0.45203275  0.83243904  0.32382407     0.10400
C1272       C  0.48962620  0.88915500  0.33984348     0.03600
C1273       C  0.49086992  0.90827980  0.36443475    -0.12800
C1274       C  0.50370168  0.89912605  0.39168283    -0.08500
C1275       C  0.51575867  0.87000207  0.39391209     0.07100
C1276       C  0.51372927  0.85068651  0.36951928    -0.13600
S1277       S  0.47410834  0.90202644  0.30488537    -0.30500
H1278       H  0.48149876  0.93045944  0.36242038     0.11300
S1279       S  0.53532381  0.85651045  0.42633458    -0.27600
H1280       H  0.52269369  0.82828214  0.37130943     0.08500
H1281       H  0.43694158  0.78386688  0.25453859     0.27000
H1282       H  0.46976301  0.93189089  0.31352081     0.21800
H1283       H  0.55121001  0.88323941  0.43068870     0.27100
H1284       H  0.55126991  0.87396013  0.31721931     0.15900
C1285       C  0.48668710  0.13852426  0.62041680    -0.11400
C1286       C  0.50308694  0.13114001  0.64605534     0.15200
C1287       C  0.51914972  0.10417212  0.64707786     0.02100
C1288       C  0.51924147  0.08561022  0.62207575    -0.15700
C1289       C  0.50291922  0.09290140  0.59624852    -0.10500
C1290       C  0.48597869  0.11948671  0.59571721     0.08800
C1291       C  0.50305566  0.15239340  0.67107709     0.09800
S1292       S  0.53993474  0.09223144  0.67946345    -0.24800
H1293       H  0.53204912  0.06510158  0.62289905     0.20100
S1294       S  0.46179276  0.12957474  0.56517140    -0.30500
H1295       H  0.47396327  0.15909718  0.61987782     0.10400
C1296       C  0.52766282  0.17109209  0.67657449     0.03600
C1297       C  0.52492802  0.19397398  0.69766103    -0.12800
C1298       C  0.49803962  0.19854268  0.71305695    -0.08500
C1299       C  0.47394320  0.17889416  0.70839940     0.07100
C1300       C  0.47683665  0.15577065  0.68775000    -0.13600
S1301       S  0.56162114  0.16736089  0.65513243    -0.30500
H1302       H  0.54316507  0.20946072  0.70098803     0.11300
S1303       S  0.43803726  0.18408358  0.72551546    -0.27600
H1304       H  0.45792800  0.14137473  0.68332685     0.08500
H1305       H  0.45115869  0.10041362  0.56047072     0.27000
H1306       H  0.57842762  0.18826691  0.67140628     0.21800
H1307       H  0.43673247  0.21473459  0.71880339     0.27100
H1308       H  0.52204054  0.10667576  0.70082641     0.15900
C1309       C  0.47580995  0.88355104  0.64411848    -0.11400
C1310       C  0.49354095  0.85786596  0.64370168     0.15200
C1311       C  0.51033421  0.85104344  0.61782862     0.02100
C1312       C  0.51066973  0.87115284  0.59383913    -0.15700
C1313       C  0.49382439  0.89753923  0.59469129    -0.10500
C1314       C  0.47538618  0.90322683  0.61978125     0.08800
C1315       C  0.49252750  0.83769844  0.66984824     0.09800
S1316       S  0.53166088  0.81709522  0.61396212    -0.24800
H1317       H  0.52448322  0.86634798  0.57454387     0.20100
S1318       S  0.44970776  0.93434590  0.62032630    -0.30500
H1319       H  0.46198283  0.88789706  0.66348984     0.10400
C1320       C  0.51658367  0.83509109  0.68997376     0.03600
C1321       C  0.51593392  0.81265980  0.71194621    -0.12800
C1322       C  0.49155330  0.79317292  0.71410765    -0.08500
C1323       C  0.46635060  0.79789351  0.69581043     0.07100
C1324       C  0.46717894  0.81992022  0.67378277    -0.13600
S1325       S  0.54832558  0.85969317  0.68703158    -0.30500
H1326       H  0.53514722  0.80903351  0.72612571     0.11300
S1327       S  0.43299657  0.77556858  0.69863152    -0.27600
H1328       H  0.44834201  0.82250655  0.65884955     0.08500
H1329       H  0.44047636  0.93132453  0.65022533     0.27000
H1330       H  0.56497590  0.84683947  0.71035445     0.21800
H1331       H  0.43667237  0.76807176  0.72892069     0.27100
H1332       H  0.51348564  0.79918496  0.63223766     0.15900
C1333       C  0.32925042  0.02547720  0.30838505    -0.11400
C1334       C  0.33401007  0.00005107  0.32610815     0.15200
C1335       C  0.31522044  0.97499932  0.32223374     0.02100
C1336       C  0.29280619  0.97572740  0.30043241    -0.15700
C1337       C  0.28807023  0.00107258  0.28259440    -0.10500
C1338       C  0.30641119  0.02634984  0.28698848     0.08800
C1339       C  0.35849157  0.00049966  0.34854200     0.09800
S1340       S  0.31853584  0.94137381  0.34423573    -0.24800
H1341       H  0.27885180  0.95629289  0.29734806     0.20100
S1342       S  0.30100510  0.06070374  0.26690228    -0.30500
H1343       H  0.34328144  0.04492178  0.31147348     0.10400
C1344       C  0.38503677  0.98412333  0.34441335     0.03600
C1345       C  0.40713658  0.98449878  0.36671229    -0.12800
C1346       C  0.40339252  0.00107296  0.39317178    -0.08500
C1347       C  0.37710871  0.01835494  0.39663360     0.07100
C1348       C  0.35496705  0.01759656  0.37453947    -0.13600
S1349       S  0.39102729  0.96321088  0.31045935    -0.30500
H1350       H  0.42731651  0.97157440  0.36363134     0.11300
S1351       S  0.37093526  0.04291960  0.42797379    -0.27600
H1352       H  0.33481450  0.03061956  0.37754802     0.08500
H1353       H  0.26978108  0.05811644  0.26583401     0.27000
H1354       H  0.41569219  0.94684260  0.32081647     0.21800
H1355       H  0.40071848  0.05266407  0.42974562     0.27100
H1356       H  0.33141919  0.95447711  0.36962210     0.15900
C1357       C  0.62038002  0.97503978  0.64263369    -0.11400
C1358       C  0.64638835  0.99212045  0.63940194     0.15200
C1359       C  0.65032587  0.00934558  0.61321777     0.02100
C1360       C  0.62792962  0.00970189  0.59136743    -0.15700
C1361       C  0.60167027  0.99286911  0.59468202    -0.10500
C1362       C  0.59825033  0.97490421  0.62055110     0.08800
C1363       C  0.66906403  0.99108365  0.66355962     0.09800
S1364       S  0.68326970  0.03147163  0.60636243    -0.24800
H1365       H  0.63100165  0.02339233  0.57162754     0.20100
S1366       S  0.56695164  0.95021981  0.62620851    -0.30500
H1367       H  0.61747491  0.96138259  0.66242714     0.10400
C1368       C  0.67354702  0.01531405  0.68314403     0.03600
C1369       C  0.69541112  0.01323778  0.70549568    -0.12800
C1370       C  0.71301464  0.98750142  0.70865896    -0.08500
C1371       C  0.70778388  0.96294459  0.68962982     0.07100
C1372       C  0.68612904  0.96507505  0.66718322    -0.13600
S1373       S  0.65110958  0.04865023  0.68001614    -0.30500
H1374       H  0.69913401  0.03181137  0.72042687     0.11300
S1375       S  0.72704813  0.92790874  0.69372180    -0.27600
H1376       H  0.68235928  0.94621071  0.65252570     0.08500
H1377       H  0.56547959  0.94084339  0.59623977     0.27000
H1378       H  0.66553306  0.06496121  0.70262159     0.21800
H1379       H  0.73109782  0.93010067  0.72479025     0.27100
H1380       H  0.70314024  0.01372881  0.62290848     0.15900
C1381       C  0.31733327  0.01709488  0.66646243    -0.11400
C1382       C  0.33637560  0.99243641  0.66350310     0.15200
C1383       C  0.33327858  0.96815091  0.68341033     0.02100
C1384       C  0.31026742  0.96839249  0.70465014    -0.15700
C1385       C  0.29064821  0.99272875  0.70708583    -0.10500
C1386       C  0.29501443  0.01776953  0.68838155     0.08800
C1387       C  0.35923551  0.99294489  0.63950253     0.09800
S1388       S  0.35775165  0.93621071  0.68265225    -0.24800
H1389       H  0.30736739  0.94932427  0.71926066     0.20100
S1390       S  0.27403716  0.05180843  0.69240461    -0.30500
H1391       H  0.32017511  0.03615390  0.65180375     0.10400
C1392       C  0.35494471  0.97790896  0.61219851     0.03600
C1393       C  0.37690684  0.97974009  0.58980241    -0.12800
C1394       C  0.40308647  0.99651009  0.59404295    -0.08500
C1395       C  0.40679033  0.01222086  0.62129994     0.07100
C1396       C  0.38507165  0.00996839  0.64369512    -0.13600
S1397       S  0.32128348  0.95674778  0.60579081    -0.30500
H1398       H  0.37387145  0.96772414  0.56905190     0.11300
S1399       S  0.43784380  0.03676417  0.62851134    -0.27600
H1400       H  0.38806337  0.02204263  0.66445248     0.08500
H1401       H  0.26817244  0.04832957  0.72307949     0.27000
H1402       H  0.32794595  0.94809846  0.57631922     0.21800
H1403       H  0.43902796  0.04840899  0.59933175     0.27100
H1404       H  0.38321053  0.95159385  0.67269658     0.15900
C1405       C  0.61346003  0.96361352  0.14232355    -0.11400
C1406       C  0.63645266  0.98458241  0.14503294     0.15200
C1407       C  0.64012274  0.00668495  0.12274677     0.02100
C1408       C  0.61983920  0.00819984  0.09909523    -0.15700
C1409       C  0.59656620  0.98751137  0.09667405    -0.10500
C1410       C  0.59383521  0.96450871  0.11815218     0.08800
C1411       C  0.65801137  0.98094469  0.16961152     0.09800
S1412       S  0.67033248  0.03329802  0.12285368    -0.24800
H1413       H  0.62217300  0.02568792  0.08250148     0.20100
S1414       S  0.56679687  0.93483616  0.11516850    -0.30500
H1415       H  0.61130523  0.94596446  0.15877034     0.10400
C1416       C  0.66013352  0.00146120  0.19336243     0.03600
C1417       C  0.68395395  0.99907540  0.21355847    -0.12800
C1418       C  0.70547197  0.97652141  0.21030981    -0.08500
C1419       C  0.70180536  0.95471118  0.18771534     0.07100
C1420       C  0.67812401  0.95719189  0.16776891    -0.13600
S1421       S  0.63331406  0.03128289  0.19713215    -0.30500
H1422       H  0.68687979  0.01588968  0.23065949     0.11300
S1423       S  0.72709594  0.92384263  0.18184659    -0.27600
H1424       H  0.67610886  0.94116963  0.14973986     0.08500
H1425       H  0.56765854  0.93323875  0.08379871     0.27000
H1426       H  0.64379202  0.04204432  0.22471345     0.21800
H1427       H  0.73989033  0.92347273  0.21038675     0.27100
H1428       H  0.69140023  0.01491819  0.13703852     0.15900
C1429       C  0.67229014  0.96513391  0.30734789    -0.11400
C1430       C  0.67133178  0.99060430  0.32549159     0.15200
C1431       C  0.69217487  0.01369994  0.32051990     0.02100
C1432       C  0.71317871  0.01092115  0.29743794    -0.15700
C1433       C  0.71447772  0.98525089  0.27943528    -0.10500
C1434       C  0.69366215  0.96204277  0.28467697     0.08800
C1435       C  0.64811942  0.99233276  0.34915930     0.09800
S1436       S  0.69295174  0.04730494  0.34264970    -0.24800
H1437       H  0.72885598  0.02889468  0.29353460     0.20100
S1438       S  0.69361515  0.92743175  0.26428085    -0.30500
H1439       H  0.65641150  0.94729351  0.31116586     0.10400
C1440       C  0.62114872  0.00778335  0.34462476     0.03600
C1441       C  0.59926409  0.00776242  0.36718085    -0.12800
C1442       C  0.60367433  0.99251296  0.39436286    -0.08500
C1443       C  0.63084279  0.97678480  0.39858162     0.07100
C1444       C  0.65266597  0.97706173  0.37610818    -0.13600
S1445       S  0.61459222  0.02738099  0.30997302    -0.30500
H1446       H  0.57874590  0.02002903  0.36375605     0.11300
S1447       S  0.63866006  0.95468129  0.43134699    -0.27600
H1448       H  0.67324501  0.96481071  0.37942934     0.08500
H1449       H  0.72441876  0.92680485  0.25932598     0.27000
H1450       H  0.58472665  0.03501767  0.31579759     0.21800
H1451       H  0.60988190  0.94226612  0.43300478     0.27100
H1452       H  0.68276863  0.03424141  0.36932979     0.15900
C1453       C  0.37450681  0.85549548  0.50736978    -0.11400
C1454       C  0.34993268  0.86290342  0.48946061     0.15200
C1455       C  0.35019706  0.88952376  0.47273039     0.02100
C1456       C  0.37525510  0.90792386  0.47392249    -0.15700
C1457       C  0.40000758  0.90061113  0.49178513    -0.10500
C1458       C  0.39939183  0.87420766  0.50901129     0.08800
C1459       C  0.32576622  0.84091577  0.48672767     0.09800
S1460       S  0.31987162  0.90083197  0.44874874    -0.24800
H1461       H  0.37545639  0.92818299  0.46065453     0.20100
S1462       S  0.42894964  0.86368988  0.53419158    -0.30500
H1463       H  0.37425601  0.83492553  0.52013660     0.10400
C1464       C  0.32684792  0.81904849  0.46430353     0.03600
C1465       C  0.30584512  0.79607185  0.46454673    -0.12800
C1466       C  0.28399218  0.79421202  0.48700688    -0.08500
C1467       C  0.28235271  0.81683648  0.50896716     0.07100
C1468       C  0.30310117  0.84018327  0.50831860    -0.13600
S1469       S  0.35614690  0.81939277  0.43651893    -0.30500
H1470       H  0.30720551  0.77858102  0.44790620     0.11300
S1471       S  0.25642450  0.81617542  0.53976858    -0.27600
H1472       H  0.30257724  0.85705884  0.52564937     0.08500
H1473       H  0.43408600  0.89280922  0.54475613     0.27000
H1474       H  0.34699530  0.79367720  0.42103830     0.21800
H1475       H  0.25547125  0.78498831  0.54285323     0.27100
H1476       H  0.29712016  0.88524183  0.46365601     0.15900
C1477       C  0.65446273  0.88460140  0.51548724    -0.11400
C1478       C  0.65144905  0.85669043  0.50197846     0.15200
C1479       C  0.62459517  0.84935217  0.48724299     0.02100
C1480       C  0.60135467  0.87020155  0.48635993    -0.15700
C1481       C  0.60427254  0.89832371  0.49981377    -0.10500
C1482       C  0.63115797  0.90522131  0.51509129     0.08800
C1483       C  0.67521979  0.83456254  0.50704737     0.09800
S1484       S  0.61823943  0.81365669  0.46973084    -0.24800
H1485       H  0.58094323  0.86446492  0.47486621     0.20100
S1486       S  0.63650114  0.93868712  0.53678091    -0.30500
H1487       H  0.67470376  0.88981608  0.52763905     0.10400
C1488       C  0.70080407  0.83311162  0.48883009     0.03600
C1489       C  0.72183719  0.81041645  0.49375287    -0.12800
C1490       C  0.71775834  0.78949788  0.51678541    -0.08500
C1491       C  0.69307509  0.79260472  0.53634967     0.07100
C1492       C  0.67201381  0.81485208  0.53103103    -0.13600
S1493       S  0.70554146  0.85890819  0.45820320    -0.30500
H1494       H  0.74036145  0.80781842  0.47845887     0.11300
S1495       S  0.68646592  0.76852902  0.56808137    -0.27600
H1496       H  0.65269116  0.81662736  0.54551067     0.08500
H1497       H  0.60774331  0.93774000  0.54935482     0.27000
H1498       H  0.73368740  0.84848889  0.44898983     0.21800
H1499       H  0.71617351  0.75955411  0.57209757     0.27100
H1500       H  0.64826472  0.80637811  0.46458867     0.15900
C1501       C  0.65527967  0.10515513  0.47181768    -0.11400
C1502       C  0.65595624  0.13010544  0.49053439     0.15200
C1503       C  0.63089995  0.13682558  0.50855451     0.02100
C1504       C  0.60630326  0.11761404  0.50849687    -0.15700
C1505       C  0.60579230  0.09234864  0.49007898    -0.10500
C1506       C  0.63035314  0.08655387  0.47096713     0.08800
C1507       C  0.68193589  0.15017555  0.48889683     0.09800
S1508       S  0.62879533  0.16959662  0.53189524    -0.24800
H1509       H  0.58755479  0.12229361  0.52306892     0.20100
S1510       S  0.63079415  0.05666341  0.44394857    -0.30500
H1511       H  0.67405167  0.10057874  0.45723255     0.10400
C1512       C  0.70212080  0.15320093  0.51281548     0.03600
C1513       C  0.72253677  0.17694161  0.51256242    -0.12800
C1514       C  0.72304347  0.19721667  0.48867448    -0.08500
C1515       C  0.70520085  0.19190814  0.46330880     0.07100
C1516       C  0.68469502  0.16854711  0.46374537    -0.13600
S1517       S  0.70075906  0.12779680  0.54412372    -0.30500
H1518       H  0.73658185  0.18096527  0.53180365     0.11300
S1519       S  0.70641223  0.21522222  0.43045406    -0.27600
H1520       H  0.66969008  0.16564006  0.44500254     0.08500
H1521       H  0.60025223  0.05868749  0.43705136     0.27000
H1522       H  0.72475236  0.14034771  0.55995770     0.21800
H1523       H  0.73580456  0.22530994  0.43453501     0.27100
H1524       H  0.64621650  0.18824969  0.51362456     0.15900
C1525       C  0.32040362  0.16903962  0.52603750    -0.11400
C1526       C  0.32551925  0.15251483  0.50002040     0.15200
C1527       C  0.30664152  0.15654560  0.47508800     0.02100
C1528       C  0.28519430  0.17930392  0.47566234    -0.15700
C1529       C  0.28130213  0.19705344  0.50118471    -0.10500
C1530       C  0.29838570  0.19099133  0.52698658     0.08800
C1531       C  0.35194102  0.13282896  0.49930572     0.09800
S1532       S  0.30971471  0.13428085  0.44164882    -0.24800
H1533       H  0.27266825  0.18412520  0.45558517     0.20100
S1534       S  0.29484097  0.21214260  0.56109408    -0.30500
H1535       H  0.33451112  0.16562777  0.54539511     0.10400
C1536       C  0.37751612  0.14011696  0.48238537     0.03600
C1537       C  0.40235736  0.12106375  0.48306585    -0.12800
C1538       C  0.40219131  0.09512916  0.50060177    -0.08500
C1539       C  0.37728411  0.08920756  0.51919189     0.07100
C1540       C  0.35231568  0.10773007  0.51788229    -0.13600
S1541       S  0.37889730  0.17408003  0.46066856    -0.30500
H1542       H  0.42170934  0.12606685  0.46955011     0.11300
S1543       S  0.37649783  0.05935817  0.54625175    -0.27600
H1544       H  0.33318188  0.10288595  0.53189909     0.08500
H1545       H  0.26489724  0.22017233  0.55691023     0.27000
H1546       H  0.40578557  0.16778478  0.44572503     0.21800
H1547       H  0.40713590  0.06074150  0.55279504     0.27100
H1548       H  0.32202963  0.10894798  0.45550941     0.15900
C1549       C  0.87411303  0.00118394  0.63960751    -0.11400
C1550       C  0.85101798  0.98105573  0.63305652     0.15200
C1551       C  0.85248057  0.96400560  0.60659735     0.02100
C1552       C  0.87720480  0.96706459  0.58775714    -0.15700
C1553       C  0.90024208  0.98741574  0.59410330    -0.10500
C1554       C  0.89835655  0.00493826  0.62022033     0.08800
C1555       C  0.82575382  0.97904855  0.65426678     0.09800
S1556       S  0.82355740  0.93841500  0.59514507    -0.24800
H1557       H  0.87823956  0.95371308  0.56758526     0.20100
S1558       S  0.92491580  0.03372748  0.62908030    -0.30500
H1559       H  0.87283387  0.01463537  0.65969202     0.10400
C1560       C  0.82242473  0.95455507  0.67372033     0.03600
C1561       C  0.80091470  0.95581180  0.69639782    -0.12800
C1562       C  0.78245056  0.98089712  0.69992774    -0.08500
C1563       C  0.78485957  0.00480269  0.67943593     0.07100
C1564       C  0.80628793  0.00344045  0.65670848    -0.13600
S1565       S  0.84677310  0.92255460  0.67109028    -0.30500
H1566       H  0.79933778  0.93772285  0.71239821     0.11300
S1567       S  0.76331454  0.03866671  0.68220617    -0.27600
H1568       H  0.80884955  0.02223881  0.64166276     0.08500
H1569       H  0.92896940  0.04330149  0.59940105     0.27000
H1570       H  0.83034034  0.90401277  0.69044446     0.21800
H1571       H  0.76174825  0.03927246  0.71352389     0.27100
H1572       H  0.80005327  0.95139833  0.61132509     0.15900
C1573       C  0.20115404  0.97966710  0.64725477    -0.11400
C1574       C  0.17983985  0.00258996  0.64730253     0.15200
C1575       C  0.18098548  0.02485674  0.66945295     0.02100
C1576       C  0.20191865  0.02245931  0.69232889    -0.15700
C1577       C  0.22181879  0.99829648  0.69377092    -0.10500
C1578       C  0.22195101  0.97702278  0.67044547     0.08800
C1579       C  0.15453460  0.00064287  0.62642416     0.09800
S1580       S  0.15474313  0.05535270  0.67137975    -0.24800
H1581       H  0.20157848  0.03875606  0.71022504     0.20100
S1582       S  0.24579295  0.94461979  0.67008030    -0.30500
H1583       H  0.20024283  0.96260023  0.63012664     0.10400
C1584       C  0.15582010  0.01358484  0.59789501     0.03600
C1585       C  0.13084544  0.01187042  0.57923972    -0.12800
C1586       C  0.10475767  0.99672352  0.58825228    -0.08500
C1587       C  0.10417014  0.98267654  0.61654472     0.07100
C1588       C  0.12879901  0.98534058  0.63551596    -0.13600
S1589       S  0.18898142  0.03294949  0.58569317    -0.30500
H1590       H  0.13159045  0.02267651  0.55760429     0.11300
S1591       S  0.07366658  0.95959784  0.62902940    -0.27600
H1592       H  0.12820370  0.97483905  0.65733467     0.08500
H1593       H  0.24630113  0.94022994  0.70114870     0.27000
H1594       H  0.18059465  0.03566080  0.55553663     0.21800
H1595       H  0.06940168  0.94567840  0.60116393     0.27100
H1596       H  0.14859191  0.05701022  0.64068465     0.15900
C1597       C  0.14772720  0.96861753  0.38061388    -0.11400
C1598       C  0.14788593  0.98692240  0.35534632     0.15200
C1599       C  0.12208836  0.00356407  0.34801004     0.02100
C1600       C  0.09766710  0.00340057  0.36748999    -0.15700
C1601       C  0.09815991  0.98630404  0.39369866    -0.10500
C1602       C  0.12303601  0.96766780  0.39949544     0.08800
C1603       C  0.17498946  0.98741982  0.33668014     0.09800
S1604       S  0.11902558  0.02561585  0.31442290    -0.24800
H1605       H  0.07850866  0.01724929  0.36252377     0.20100
S1606       S  0.12447073  0.94148862  0.43002917    -0.30500
H1607       H  0.16702106  0.95491648  0.38562001     0.10400
C1608       C  0.19282723  0.01319268  0.33402002     0.03600
C1609       C  0.21557130  0.01387946  0.31246772    -0.12800
C1610       C  0.22080200  0.98909142  0.29409960    -0.08500
C1611       C  0.20521031  0.96223099  0.29938313     0.07100
C1612       C  0.18234785  0.96173081  0.32050862    -0.13600
S1613       S  0.18590279  0.04535186  0.35733491    -0.30500
H1614       H  0.22775138  0.03435176  0.30837828     0.11300
S1615       S  0.21197783  0.92844624  0.27846311    -0.27600
H1616       H  0.16925056  0.94159209  0.32334996     0.08500
H1617       H  0.09373389  0.93551682  0.42955744     0.27000
H1618       H  0.20801049  0.06373498  0.34472532     0.21800
H1619       H  0.23993311  0.93647700  0.26678022     0.27100
H1620       H  0.13785748  0.00773722  0.29680079     0.15900
C1621       C  0.87298084  0.98412559  0.35111931    -0.11400
C1622       C  0.84737498  0.00055406  0.35838589     0.15200
C1623       C  0.84598809  0.01598868  0.38577066     0.02100
C1624       C  0.87040833  0.01478767  0.40517299    -0.15700
C1625       C  0.89604940  0.99803329  0.39813206    -0.10500
C1626       C  0.89707240  0.98228526  0.37078107     0.08800
C1627       C  0.82258207  0.00029682  0.33681354     0.09800
S1628       S  0.81400774  0.03767340  0.39719103    -0.24800
H1629       H  0.86931724  0.02698029  0.42605540     0.20100
S1630       S  0.92745680  0.95803959  0.36033539    -0.30500
H1631       H  0.87385729  0.97199244  0.33018390     0.10400
C1632       C  0.81898497  0.02333395  0.31574481     0.03600
C1633       C  0.79889776  0.01942436  0.29213133    -0.12800
C1634       C  0.78252195  0.99288662  0.28919814    -0.08500
C1635       C  0.78518568  0.97049301  0.31120294     0.07100
C1636       C  0.80486827  0.97461585  0.33499532    -0.13600
S1637       S  0.84152872  0.05664957  0.31762821    -0.30500
H1638       H  0.79705096  0.03640030  0.27498720     0.11300
S1639       S  0.76680744  0.93494372  0.30843113    -0.27600
H1640       H  0.80790085  0.95682484  0.35113671     0.08500
H1641       H  0.93121553  0.94589262  0.38909333     0.27000
H1642       H  0.82560130  0.07290509  0.29597664     0.21800
H1643       H  0.77399648  0.93097443  0.27809460     0.27100
H1644       H  0.79256311  0.02211972  0.38047897     0.15900
C1645       C  0.11955711  0.84696755  0.47244177    -0.11400
C1646       C  0.14438792  0.84993387  0.49123639     0.15200
C1647       C  0.14675974  0.87551540  0.50952746     0.02100
C1648       C  0.12426740  0.89728832  0.50876915    -0.15700
C1649       C  0.09930734  0.89440375  0.49000044    -0.10500
C1650       C  0.09719806  0.86887433  0.47140339     0.08800
C1651       C  0.16776197  0.82639038  0.49064467     0.09800
S1652       S  0.17758303  0.88154088  0.53472555    -0.24800
H1653       H  0.12614723  0.91658493  0.52323427     0.20100
S1654       S  0.06731922  0.86319513  0.44500600    -0.30500
H1655       H  0.11780498  0.82755315  0.45811724     0.10400
C1656       C  0.16949536  0.80413061  0.51282270     0.03600
C1657       C  0.19263528  0.78299473  0.51171399    -0.12800
C1658       C  0.21407131  0.78335193  0.48872588    -0.08500
C1659       C  0.21160147  0.80522250  0.46595534     0.07100
C1660       C  0.18872780  0.82652949  0.46738108    -0.13600
S1661       S  0.14219843  0.80261733  0.54247331    -0.30500
H1662       H  0.19445178  0.76632330  0.52911550     0.11300
S1663       S  0.23569506  0.80673201  0.43370794    -0.27600
H1664       H  0.18712236  0.84336765  0.45005690     0.08500
H1665       H  0.06328156  0.89342487  0.43776508     0.27000
H1666       H  0.15298743  0.77646469  0.55612826     0.21800
H1667       H  0.24453818  0.77671977  0.43421910     0.27100
H1668       H  0.19905349  0.86518063  0.51877456     0.15900
C1669       C  0.88131834  0.84673760  0.51674105    -0.11400
C1670       C  0.85561895  0.84959157  0.49915197     0.15200
C1671       C  0.85236570  0.87502184  0.48072868     0.02100
C1672       C  0.87486951  0.89680254  0.48022108    -0.15700
C1673       C  0.90053253  0.89414227  0.49806103    -0.10500
C1674       C  0.90352255  0.86874677  0.51671649     0.08800
C1675       C  0.83208588  0.82639751  0.50187929     0.09800
S1676       S  0.82011557  0.88106167  0.45741325    -0.24800
H1677       H  0.87228452  0.91605867  0.46577976     0.20100
S1678       S  0.93416125  0.86381204  0.54234438    -0.30500
H1679       H  0.88371379  0.82750357  0.53125040     0.10400
C1680       C  0.82813250  0.80399755  0.48016477     0.03600
C1681       C  0.80569815  0.78246384  0.48418446    -0.12800
C1682       C  0.78756255  0.78225455  0.50985783    -0.08500
C1683       C  0.79210232  0.80445211  0.53186923     0.07100
C1684       C  0.81396749  0.82636202  0.52744110    -0.13600
S1685       S  0.85214317  0.80233168  0.44779210    -0.30500
H1686       H  0.80220419  0.76556479  0.46730163     0.11300
S1687       S  0.77189122  0.80558136  0.56664165    -0.27600
H1688       H  0.81730359  0.84330800  0.54438062     0.08500
H1689       H  0.93600213  0.89409584  0.55044873     0.27000
H1690       H  0.84046845  0.77572536  0.43590088     0.21800
H1691       H  0.76657917  0.77483286  0.56833400     0.27100
H1692       H  0.79950197  0.86596578  0.47562969     0.15900
C1693       C  0.85287380  0.11548110  0.51375261    -0.11400
C1694       C  0.85778891  0.14144978  0.49695436     0.15200
C1695       C  0.88498567  0.14493354  0.48144593     0.02100
C1696       C  0.90604170  0.12186618  0.48202926    -0.15700
C1697       C  0.90101212  0.09551574  0.49841306    -0.10500
C1698       C  0.87428149  0.09275993  0.51506119     0.08800
C1699       C  0.83423131  0.16457431  0.49639479     0.09800
S1700       S  0.89417325  0.17817177  0.46054109    -0.24800
H1701       H  0.92654675  0.12453029  0.46948057     0.20100
S1702       S  0.86667820  0.06165883  0.53952462    -0.30500
H1703       H  0.83228655  0.11307305  0.52624300     0.10400
C1704       C  0.81638153  0.16932380  0.47092613     0.03600
C1705       C  0.79439913  0.19160228  0.47156656    -0.12800
C1706       C  0.78991299  0.20917816  0.49712978    -0.08500
C1707       C  0.80727006  0.20374207  0.52284403     0.07100
C1708       C  0.82942525  0.18177796  0.52209848    -0.13600
S1709       S  0.82111063  0.14656440  0.43795624    -0.30500
H1710       H  0.78058668  0.19550445  0.45215594     0.11300
S1711       S  0.80130678  0.22300290  0.55765248    -0.27600
H1712       H  0.84282393  0.17777592  0.54183662     0.08500
H1713       H  0.89615838  0.05902739  0.54995250     0.27000
H1714       H  0.79942917  0.16096338  0.42041235     0.21800
H1715       H  0.77061928  0.22789942  0.55359122     0.27100
H1716       H  0.87665798  0.19817422  0.47718202     0.15900
C1717       C  0.17156802  0.17911164  0.52190574    -0.11400
C1718       C  0.16804023  0.16243927  0.49558988     0.15200
C1719       C  0.18679729  0.16862588  0.47092186     0.02100
C1720       C  0.20825155  0.19126951  0.47309173    -0.15700
C1721       C  0.21241641  0.20722313  0.49970952    -0.10500
C1722       C  0.19382654  0.20101368  0.52438782     0.08800
C1723       C  0.14459429  0.13889958  0.49468153     0.09800
S1724       S  0.18503790  0.14803559  0.43636143    -0.24800
H1725       H  0.22200181  0.19643659  0.45389262     0.20100
S1726       S  0.19916338  0.21983845  0.55951003    -0.30500
H1727       H  0.15710719  0.17446611  0.54073424     0.10400
C1728       C  0.14580718  0.11379776  0.51371835     0.03600
C1729       C  0.12333632  0.09206912  0.51225979    -0.12800
C1730       C  0.09924667  0.09500116  0.49248878    -0.08500
C1731       C  0.09782463  0.12024709  0.47354840     0.07100
C1732       C  0.12049917  0.14190382  0.47487689    -0.13600
S1733       S  0.17650389  0.10861762  0.53924391    -0.30500
H1734       H  0.12448686  0.07270591  0.52671818     0.11300
S1735       S  0.06806070  0.12429635  0.44660895    -0.27600
H1736       H  0.11960014  0.16126043  0.46041194     0.08500
H1737       H  0.17468645  0.20714394  0.57453390     0.27000
H1738       H  0.16137924  0.08878175  0.55833214     0.21800
H1739       H  0.07720936  0.15195295  0.43487674     0.27100
H1740       H  0.17651812  0.12071301  0.44926791     0.15900
C1741       C  0.98697513  0.64324769  0.11544546    -0.11400
C1742       C  0.00476696  0.63606636  0.14024100     0.15200
C1743       C  0.02011011  0.60863546  0.14088751     0.02100
C1744       C  0.01850331  0.58969249  0.11626510    -0.15700
C1745       C  0.00086262  0.59675518  0.09127617    -0.10500
C1746       C  0.98441623  0.62364807  0.09119130     0.08800
C1747       C  0.00816455  0.65823095  0.16437439     0.09800
S1748       S  0.04205691  0.59646450  0.17242455    -0.24800
H1749       H  0.03091783  0.56892730  0.11682047     0.20100
S1750       S  0.95885362  0.63354537  0.06174573    -0.30500
H1751       H  0.97485991  0.66418023  0.11511554     0.10400
C1752       C  0.03504602  0.67402985  0.16802430     0.03600
C1753       C  0.03702812  0.69580549  0.19027898    -0.12800
C1754       C  0.01273966  0.70215151  0.20901727    -0.08500
C1755       C  0.98588642  0.68602002  0.20558296     0.07100
C1756       C  0.98402626  0.66400165  0.18347375    -0.13600
S1757       S  0.06624615  0.66786062  0.14318140    -0.30500
H1758       H  0.05725354  0.70883867  0.19242372     0.11300
S1759       S  0.95266906  0.69352756  0.22709694    -0.27600
H1760       H  0.96335191  0.65183314  0.18054351     0.08500
H1761       H  0.94850333  0.60433069  0.05697439     0.27000
H1762       H  0.08720667  0.68436628  0.15968205     0.21800
H1763       H  0.95762772  0.72420014  0.23122577     0.27100
H1764       H  0.02560582  0.61177107  0.19434664     0.15900
C1765       C  0.01633598  0.86999262  0.35067319    -0.11400
C1766       C  0.00117884  0.84376829  0.35868750     0.15200
C1767       C  0.98458755  0.84290729  0.38542075     0.02100
C1768       C  0.98260954  0.86855109  0.40293115    -0.15700
C1769       C  0.99785864  0.89486269  0.39512395    -0.10500
C1770       C  0.01496342  0.89548136  0.36861531     0.08800
C1771       C  0.00264377  0.81810179  0.33815713     0.09800
S1772       S  0.96626458  0.80966844  0.39896216    -0.24800
H1773       H  0.96975735  0.86763193  0.42344784     0.20100
S1774       S  0.03749055  0.92700304  0.35794638    -0.30500
H1775       H  0.02942115  0.87053489  0.33029690     0.10400
C1776       C  0.97784935  0.80967697  0.32078741     0.03600
C1777       C  0.98131989  0.78756911  0.29894152    -0.12800
C1778       C  0.00916054  0.77424601  0.29380601    -0.08500
C1779       C  0.03352724  0.78184585  0.31211513     0.07100
C1780       C  0.03006324  0.80365638  0.33411168    -0.13600
S1781       S  0.94273584  0.82920593  0.32423887    -0.30500
H1782       H  0.96295278  0.78228780  0.28417419     0.11300
S1783       S  0.07010218  0.76648543  0.30639173    -0.27600
H1784       H  0.04913800  0.81026170  0.34740576     0.08500
H1785       H  0.01266300  0.94576511  0.35387038     0.27000
H1786       H  0.92761591  0.81369239  0.30154615     0.21800
H1787       H  0.05938363  0.73719887  0.30410049     0.27100
H1788       H  0.98561650  0.78910600  0.38529168     0.15900
C1789       C  0.00818375  0.32935749  0.80487724    -0.11400
C1790       C  0.98479110  0.33011722  0.82573952     0.15200
C1791       C  0.95995929  0.31120618  0.82176368     0.02100
C1792       C  0.95944705  0.29157510  0.79760869    -0.15700
C1793       C  0.98378147  0.28916732  0.77799407    -0.10500
C1794       C  0.00840426  0.30848892  0.78161434     0.08800
C1795       C  0.98668960  0.35093236  0.85127395     0.09800
S1796       S  0.92924180  0.30941542  0.84781531    -0.24800
H1797       H  0.94079402  0.27634317  0.79538285     0.20100
S1798       S  0.04182329  0.30606729  0.75935861    -0.30500
H1799       H  0.02713707  0.34409113  0.80770550     0.10400
C1800       C  0.00894752  0.34810936  0.87341691     0.03600
C1801       C  0.00984914  0.36869926  0.89699408    -0.12800
C1802       C  0.98866613  0.39158904  0.89904449    -0.08500
C1803       C  0.96545484  0.39317276  0.87786581     0.07100
C1804       C  0.96520395  0.37346810  0.85379300    -0.13600
S1805       S  0.03560220  0.31788891  0.87227362    -0.30500
H1806       H  0.02729527  0.36730424  0.91357295     0.11300
S1807       S  0.93470878  0.41883648  0.88114208    -0.27600
H1808       H  0.94769670  0.37525063  0.83721134     0.08500
H1809       H  0.04200733  0.27479352  0.75699517     0.27000
H1810       H  0.05416499  0.32857098  0.89521984     0.21800
H1811       H  0.93488178  0.42043048  0.91253365     0.27100
H1812       H  0.94632954  0.31500329  0.87353482     0.15900
C1813       C  0.97622561  0.18544842  0.65480502    -0.11400
C1814       C  0.00349210  0.17029251  0.65208621     0.15200
C1815       C  0.02800792  0.17934301  0.66965285     0.02100
C1816       C  0.02410317  0.20185137  0.69088556    -0.15700
C1817       C  0.99607851  0.21490423  0.69558739    -0.10500
C1818       C  0.97207050  0.20713604  0.67685459     0.08800
C1819       C  0.00501620  0.14400512  0.63222478     0.09800
S1820       S  0.06410251  0.16163231  0.66778362    -0.24800
H1821       H  0.04244991  0.20747515  0.70559451     0.20100
S1822       S  0.93513929  0.22221501  0.68162393    -0.30500
H1823       H  0.95748950  0.17884056  0.64103855     0.10400
C1824       C  0.98907452  0.11765663  0.63892888     0.03600
C1825       C  0.99037910  0.09346108  0.61914053    -0.12800
C1826       C  0.00755948  0.09495006  0.59299687    -0.08500
C1827       C  0.02509603  0.12067241  0.58748457     0.07100
C1828       C  0.02308766  0.14511268  0.60673786    -0.13600
S1829       S  0.96732562  0.11467648  0.67283715    -0.30500
H1830       H  0.97738243  0.07363533  0.62361290     0.11300
S1831       S  0.05139934  0.12325988  0.55705688    -0.27600
H1832       H  0.03603152  0.16501115  0.60208437     0.08500
H1833       H  0.93473512  0.21938101  0.71289839     0.27000
H1834       H  0.95834583  0.08485643  0.66896104     0.21800
H1835       H  0.05937026  0.09287230  0.55765636     0.27100
H1836       H  0.05348417  0.13268364  0.66207438     0.15900
C1837       C  0.97513987  0.66906775  0.81533815    -0.11400
C1838       C  0.00007224  0.65029761  0.81495137     0.15200
C1839       C  0.02241006  0.65448087  0.79314332     0.02100
C1840       C  0.02039925  0.67885687  0.77367222    -0.15700
C1841       C  0.99634950  0.69886548  0.77540117    -0.10500
C1842       C  0.97296067  0.69327394  0.79586552     0.08800
C1843       C  0.00263941  0.62805177  0.83905853     0.09800
S1844       S  0.05459742  0.63052753  0.79018691    -0.24800
H1845       H  0.03850738  0.68312992  0.75819443     0.20100
S1846       S  0.94025627  0.71656037  0.79949087    -0.30500
H1847       H  0.95775715  0.66549396  0.83181983     0.10400
C1848       C  0.01940582  0.63392776  0.86501672     0.03600
C1849       C  0.01838112  0.61370585  0.88895277    -0.12800
C1850       C  0.00058510  0.58796547  0.88749200    -0.08500
C1851       C  0.98349547  0.58254302  0.86144571     0.07100
C1852       C  0.98509284  0.60235226  0.83744623    -0.13600
S1853       S  0.04096519  0.66782055  0.86817874    -0.30500
H1854       H  0.03131669  0.61800606  0.90890378     0.11300
S1855       S  0.95727718  0.55223720  0.85826491    -0.27600
H1856       H  0.97153527  0.59841031  0.81780485     0.08500
H1857       H  0.94306305  0.73234967  0.77262319     0.27000
H1858       H  0.05602206  0.65995263  0.89459537     0.21800
H1859       H  0.94661655  0.55510091  0.88771548     0.27100
H1860       H  0.04072859  0.60475283  0.80151046     0.15900
C1861       C  0.03617208  0.81723545  0.67031135    -0.11400
C1862       C  0.01182853  0.81826491  0.65077718     0.15200
C1863       C  0.98932005  0.79633502  0.65284397     0.02100
C1864       C  0.99010773  0.77575615  0.67635744    -0.15700
C1865       C  0.01320230  0.77639104  0.69743644    -0.10500
C1866       C  0.03727329  0.79627499  0.69336213     0.08800
C1867       C  0.00981789  0.84363714  0.62990989     0.09800
S1868       S  0.95819803  0.79464078  0.62739668    -0.24800
H1869       H  0.97167933  0.76041533  0.67918854     0.20100
S1870       S  0.06948695  0.79652739  0.71744864    -0.30500
H1871       H  0.05392573  0.83352121  0.66818804     0.10400
C1872       C  0.99070117  0.86799701  0.63558154     0.03600
C1873       C  0.99043687  0.89223511  0.61577902    -0.12800
C1874       C  0.00881967  0.89245644  0.59043340    -0.08500
C1875       C  0.02845787  0.86822810  0.58526453     0.07100
C1876       C  0.02859237  0.84407127  0.60495460    -0.13600
S1877       S  0.96681737  0.86832341  0.66811041    -0.30500
H1878       H  0.97538452  0.91074855  0.61961180     0.11300
S1879       S  0.05467703  0.86718698  0.55468860    -0.27600
H1880       H  0.04369800  0.82558621  0.60102819     0.08500
H1881       H  0.06734573  0.76635892  0.72593363     0.27000
H1882       H  0.95299569  0.89592416  0.66232504     0.21800
H1883       H  0.06087709  0.89795525  0.55533858     0.27100
H1884       H  0.97252177  0.80846287  0.60310641     0.15900
C1885       C  0.14446800  0.62334791  0.47640372    -0.11400
C1886       C  0.13808829  0.64771838  0.49506187     0.15200
C1887       C  0.11213975  0.64741556  0.51282285     0.02100
C1888       C  0.09386024  0.62225040  0.51250575    -0.15700
C1889       C  0.10025712  0.59765546  0.49405996    -0.10500
C1890       C  0.12553790  0.59856213  0.47527513     0.08800
C1891       C  0.15980307  0.67232317  0.49644619     0.09800
S1892       S  0.10108506  0.67825072  0.53632597    -0.24800
H1893       H  0.07418478  0.62200341  0.52661659     0.20100
S1894       S  0.13399010  0.56975827  0.44843779    -0.30500
H1895       H  0.16423381  0.62379665  0.46244161     0.10400
C1896       C  0.17933977  0.67515448  0.52086224     0.03600
C1897       C  0.20217538  0.69635314  0.51960871    -0.12800
C1898       C  0.20597696  0.71458501  0.49437678    -0.08500
C1899       C  0.18551819  0.71259702  0.47054277     0.07100
C1900       C  0.16245017  0.69166054  0.47195549    -0.13600
S1901       S  0.17660762  0.65036216  0.55262086    -0.30500
H1902       H  0.21812889  0.69776837  0.53770272     0.11300
S1903       S  0.18922448  0.73403315  0.43674345    -0.27600
H1904       H  0.14734227  0.68937784  0.45321397     0.08500
H1905       H  0.10415963  0.56424435  0.44051902     0.27000
H1906       H  0.19792835  0.66490468  0.57045193     0.21800
H1907       H  0.22011436  0.72931950  0.43422080     0.27100
H1908       H  0.11568194  0.70077687  0.52006857     0.15900
C1909       C  0.85596334  0.37295761  0.48705943    -0.11400
C1910       C  0.86382564  0.34732694  0.50328104     0.15200
C1911       C  0.89163443  0.34607090  0.51777851     0.02100
C1912       C  0.91074808  0.37062711  0.51621694    -0.15700
C1913       C  0.90325530  0.39624715  0.49959371    -0.10500
C1914       C  0.87553012  0.39718486  0.48459601     0.08800
C1915       C  0.84242162  0.32235799  0.50456196     0.09800
S1916       S  0.90404488  0.31379619  0.53844450    -0.24800
H1917       H  0.93192509  0.36951206  0.52781367     0.20100
S1918       S  0.86454923  0.42757746  0.46056106    -0.30500
H1919       H  0.83467633  0.37375842  0.47563889     0.10400
C1920       C  0.82351307  0.31832780  0.52934193     0.03600
C1921       C  0.80123572  0.29647703  0.52812711    -0.12800
C1922       C  0.79755383  0.27855373  0.50268315    -0.08500
C1923       C  0.81743478  0.28180978  0.47836093     0.07100
C1924       C  0.83978265  0.30354271  0.47970814    -0.13600
S1925       S  0.82656142  0.34221004  0.56169026    -0.30500
H1926       H  0.78566045  0.29419521  0.54650364     0.11300
S1927       S  0.81442617  0.26074794  0.44417220    -0.27600
H1928       H  0.85448164  0.30669314  0.46072045     0.08500
H1929       H  0.89287668  0.43112477  0.44744904     0.27000
H1930       H  0.80398495  0.32845667  0.57866343     0.21800
H1931       H  0.78321635  0.25830726  0.44416331     0.27100
H1932       H  0.88932840  0.29245282  0.52081566     0.15900
C1933       C  0.14042284  0.36446337  0.47934824    -0.11400
C1934       C  0.13456777  0.34197654  0.50042659     0.15200
C1935       C  0.11051103  0.34536897  0.52046412     0.02100
C1936       C  0.09285355  0.37098447  0.51887527    -0.15700
C1937       C  0.09847044  0.39342763  0.49764091    -0.10500
C1938       C  0.12250685  0.38998196  0.47753952     0.08800
C1939       C  0.15600592  0.31710733  0.50308882     0.09800
S1940       S  0.10125947  0.31805723  0.54867028    -0.24800
H1941       H  0.07437343  0.37338062  0.53434215     0.20100
S1942       S  0.13102785  0.41671937  0.44869398    -0.30500
H1943       H  0.15920705  0.36212652  0.46425902     0.10400
C1944       C  0.15954326  0.29553881  0.48042626     0.03600
C1945       C  0.18293687  0.27481417  0.48247157    -0.12800
C1946       C  0.20305981  0.27580687  0.50640662    -0.08500
C1947       C  0.19835795  0.29643860  0.52988322     0.07100
C1948       C  0.17487343  0.31671839  0.52793505    -0.13600
S1949       S  0.13489906  0.29503608  0.44856080    -0.30500
H1950       H  0.18673837  0.25909088  0.46450237     0.11300
S1951       S  0.22213427  0.29940202  0.56233852    -0.27600
H1952       H  0.17201923  0.33324696  0.54538722     0.08500
H1953       H  0.10117649  0.42353266  0.44190519     0.27000
H1954       H  0.15060301  0.27335638  0.43212552     0.21800
H1955       H  0.23663362  0.27179769  0.55971478     0.27100
H1956       H  0.11307549  0.29319920  0.53361413     0.15900
C1957       C  0.86139222  0.62367893  0.51523337    -0.11400
C1958       C  0.86847723  0.64954968  0.49903135     0.15200
C1959       C  0.89504203  0.65071611  0.48230004     0.02100
C1960       C  0.91342832  0.62560489  0.48126164    -0.15700
C1961       C  0.90643038  0.59954762  0.49740501    -0.10500
C1962       C  0.88031842  0.59889604  0.51507928     0.08800
C1963       C  0.84698271  0.67437326  0.49945951     0.09800
S1964       S  0.90666254  0.68347933  0.46191242    -0.24800
H1965       H  0.93360697  0.62655176  0.46792822     0.20100
S1966       S  0.87075705  0.56804806  0.53915047    -0.30500
H1967       H  0.84110955  0.62298477  0.52842486     0.10400
C1968       C  0.82745944  0.67924611  0.47533934     0.03600
C1969       C  0.80376956  0.69925094  0.47882459    -0.12800
C1970       C  0.79946376  0.71452766  0.50581494    -0.08500
C1971       C  0.82029308  0.71117367  0.52914744     0.07100
C1972       C  0.84394302  0.69117488  0.52568410    -0.13600
S1973       S  0.83134138  0.65841668  0.44100344    -0.30500
H1974       H  0.78758872  0.70190901  0.46107505     0.11300
S1975       S  0.81662001  0.72989510  0.56452637    -0.27600
H1976       H  0.85916246  0.68747352  0.54411427     0.08500
H1977       H  0.90011029  0.56331112  0.54916823     0.27000
H1978       H  0.80846039  0.67300759  0.42523545     0.21800
H1979       H  0.78578703  0.72488057  0.56710040     0.27100
H1980       H  0.89304104  0.70438131  0.48095870     0.15900
C1981       C  0.11316880  0.52502258  0.34412601    -0.11400
C1982       C  0.13761408  0.50580105  0.34240379     0.15200
C1983       C  0.14343875  0.48579989  0.36614194     0.02100
C1984       C  0.12416432  0.48503968  0.39077662    -0.15700
C1985       C  0.09921632  0.50383578  0.39225181    -0.10500
C1986       C  0.09405601  0.52440343  0.36872473     0.08800
C1987       C  0.15758267  0.50837162  0.31637852     0.09800
S1988       S  0.17450026  0.46017107  0.36602809    -0.24800
H1989       H  0.12829463  0.46922837  0.40858113     0.20100
S1990       S  0.06404047  0.55110180  0.36888589    -0.30500
H1991       H  0.10910614  0.54081865  0.32622124     0.10400
C1992       C  0.15697012  0.48766110  0.29274343     0.03600
C1993       C  0.17965645  0.48838946  0.27112099    -0.12800
C1994       C  0.20257937  0.50966046  0.27280010    -0.08500
C1995       C  0.20106849  0.53234866  0.29473674     0.07100
C1996       C  0.17865373  0.53134474  0.31631230    -0.13600
S1997       S  0.12823506  0.45952463  0.29106722    -0.30500
H1998       H  0.18080852  0.47101334  0.25436464     0.11300
S1999       S  0.22788382  0.56228857  0.29770170    -0.27600
H2000       H  0.17844591  0.54780572  0.33405386     0.08500
H2001       H  0.06440632  0.55521494  0.39995994     0.27000
H2002       H  0.13606093  0.44827167  0.26277804     0.21800
H2003       H  0.23987312  0.55993293  0.26885407     0.27100
H2004       H  0.19396470  0.47779911  0.34887702     0.15900
C2005       C  0.84114597  0.52025647  0.30140032    -0.11400
C2006       C  0.84314703  0.49492262  0.31968605     0.15200
C2007       C  0.82263418  0.47140214  0.31613397     0.02100
C2008       C  0.79953102  0.47443175  0.29553410    -0.15700
C2009       C  0.79641715  0.50047808  0.27839337    -0.10500
C2010       C  0.81768962  0.52348835  0.28111539     0.08800
C2011       C  0.86455753  0.49518491  0.34454036     0.09800
S2012       S  0.82368205  0.43789410  0.33848714    -0.24800
H2013       H  0.78305643  0.45681921  0.29372305     0.20100
S2014       S  0.81425536  0.55863929  0.26201213    -0.30500
H2015       H  0.85679850  0.53843754  0.30440051     0.10400
C2016       C  0.89456792  0.48757557  0.34016962     0.03600
C2017       C  0.91397728  0.48782103  0.36460933    -0.12800
C2018       C  0.90425885  0.49661273  0.39333193    -0.08500
C2019       C  0.87412303  0.50543521  0.39710987     0.07100
C2020       C  0.85455725  0.50389443  0.37287278    -0.13600
S2021       S  0.90791917  0.47708729  0.30354391    -0.30500
H2022       H  0.93687427  0.48097914  0.36118658     0.11300
S2023       S  0.85942396  0.52059536  0.43138736    -0.27600
H2024       H  0.83145827  0.51039813  0.37586622     0.08500
H2025       H  0.78377438  0.56187042  0.26868494     0.27000
H2026       H  0.93830899  0.47536752  0.31108129     0.21800
H2027       H  0.88351448  0.54028593  0.43565034     0.27100
H2028       H  0.85469720  0.43766287  0.34291432     0.15900
C2029       C  0.15008694  0.48968946  0.61765623    -0.11400
C2030       C  0.13804784  0.48712599  0.64647617     0.15200
C2031       C  0.10716933  0.49015926  0.65071035     0.02100
C2032       C  0.08890879  0.49471715  0.62597668    -0.15700
C2033       C  0.10046150  0.49552011  0.59656887    -0.10500
C2034       C  0.13183102  0.49405177  0.59273514     0.08800
C2035       C  0.15853479  0.48180614  0.67158858     0.09800
S2036       S  0.08953587  0.48751682  0.68690342    -0.24800
H2037       H  0.06516986  0.49662132  0.62999901     0.20100
S2038       S  0.15036574  0.49783852  0.55720921    -0.30500
H2039       H  0.17403144  0.48822813  0.61459696     0.10400
C2040       C  0.17453252  0.45487651  0.67379826     0.03600
C2041       C  0.19665908  0.45209283  0.69555399    -0.12800
C2042       C  0.20315729  0.47572171  0.71500121    -0.08500
C2043       C  0.18619190  0.50225870  0.71357469     0.07100
C2044       C  0.16366899  0.50478203  0.69217803    -0.13600
S2045       S  0.16749836  0.42448462  0.64822299    -0.30500
H2046       H  0.21011443  0.43203094  0.69646170     0.11300
S2047       S  0.19381820  0.53470000  0.73614450    -0.27600
H2048       H  0.15132341  0.52550128  0.69030736     0.08500
H2049       H  0.13538065  0.52447999  0.54991153     0.27000
H2050       H  0.18749255  0.40403428  0.66114781     0.21800
H2051       H  0.22497122  0.53142886  0.73673383     0.27100
H2052       H  0.10976217  0.46690038  0.69914424     0.15900
C2053       C  0.82439852  0.53743907  0.66717023    -0.11400
C2054       C  0.84285629  0.51234833  0.66886068     0.15200
C2055       C  0.83890351  0.49160603  0.69227321     0.02100
C2056       C  0.81519859  0.49544733  0.71231376    -0.15700
C2057       C  0.79564498  0.51979391  0.70963320    -0.10500
C2058       C  0.80094952  0.54149695  0.68723694     0.08800
C2059       C  0.86478285  0.50807560  0.64469698     0.09800
S2060       S  0.86227235  0.45915160  0.69679848    -0.24800
H2061       H  0.81114190  0.47853702  0.72915137     0.20100
S2062       S  0.77829505  0.57444423  0.68206502    -0.30500
H2063       H  0.82776753  0.55357886  0.64941687     0.10400
C2064       C  0.85826616  0.49024333  0.61961220     0.03600
C2065       C  0.87865146  0.48898035  0.59584175    -0.12800
C2066       C  0.90522369  0.50550043  0.59662921    -0.08500
C2067       C  0.91108002  0.52411333  0.62152518     0.07100
C2068       C  0.89102735  0.52486122  0.64535982    -0.13600
S2069       S  0.82377895  0.46954203  0.61770834    -0.30500
H2070       H  0.87412806  0.47477132  0.57682039     0.11300
S2071       S  0.94272974  0.54883615  0.62359209    -0.27600
H2072       H  0.89543614  0.53935110  0.66423095     0.08500
H2073       H  0.76612940  0.57558026  0.71089453     0.27000
H2074       H  0.82716189  0.45962402  0.58807804     0.21800
H2075       H  0.94196027  0.55665829  0.59314429     0.27100
H2076       H  0.88778631  0.47118085  0.68308356     0.15900
C2077       C  0.02155472  0.64203142  0.37140308    -0.11400
C2078       C  0.00281038  0.63808403  0.34663466     0.15200
C2079       C  0.98443444  0.61246697  0.34534673     0.02100
C2080       C  0.98485097  0.59194394  0.36905036    -0.15700
C2081       C  0.00349583  0.59592584  0.39399389    -0.10500
C2082       C  0.02243126  0.62122992  0.39480413     0.08800
C2083       C  0.00377041  0.66092730  0.32253425     0.09800
S2084       S  0.96008584  0.60422087  0.31429156    -0.24800
H2085       H  0.97044164  0.57255386  0.36797052     0.20100
S2086       S  0.04930128  0.62785136  0.42406573    -0.30500
H2087       H  0.03605296  0.66136930  0.37226525     0.10400
C2088       C  0.98126906  0.68269079  0.31934989     0.03600
C2089       C  0.98441826  0.70516517  0.29762816    -0.12800
C2090       C  0.00961491  0.70642270  0.27899486    -0.08500
C2091       C  0.03209888  0.68447943  0.28223627     0.07100
C2092       C  0.02878697  0.66195970  0.30372786    -0.13600
S2093       S  0.94900088  0.68234045  0.34351043    -0.30500
H2094       H  0.96730153  0.72199415  0.29510708     0.11300
S2095       S  0.06643111  0.68478534  0.26118008    -0.27600
H2096       H  0.04629483  0.64549329  0.30641013     0.08500
H2097       H  0.05591911  0.59775110  0.42967122     0.27000
H2098       H  0.93482889  0.70742089  0.33101030     0.21800
H2099       H  0.06713522  0.71554439  0.25522458     0.27100
H2100       H  0.97280809  0.62361848  0.29321085     0.15900
C2101       C  0.01526218  0.37763843  0.64565247    -0.11400
C2102       C  0.99950116  0.35120313  0.64005485     0.15200
C2103       C  0.98529100  0.34754708  0.61216501     0.02100
C2104       C  0.98670708  0.37042531  0.59080937    -0.15700
C2105       C  0.00239442  0.39707040  0.59626428    -0.10500
C2106       C  0.01719015  0.40034363  0.62408868     0.08800
C2107       C  0.99752766  0.32814672  0.66390442     0.09800
S2108       S  0.96458995  0.31438756  0.60262011    -0.24800
H2109       H  0.97520263  0.36741006  0.56974923     0.20100
S2110       S  0.03986227  0.43223819  0.63320847    -0.30500
H2111       H  0.02641577  0.38046333  0.66693352     0.10400
C2112       C  0.02082979  0.30763762  0.66895909     0.03600
C2113       C  0.01729182  0.28519706  0.69062861    -0.12800
C2114       C  0.99110643  0.28297738  0.70776208    -0.08500
C2115       C  0.96776560  0.30361491  0.70260128     0.07100
C2116       C  0.97133350  0.32598762  0.68093013    -0.13600
S2117       S  0.05483744  0.30969714  0.64741725    -0.30500
H2118       H  0.03512566  0.26943470  0.69465505     0.11300
S2119       S  0.93242601  0.30211002  0.72177735    -0.27600
H2120       H  0.95327458  0.34154091  0.67685053     0.08500
H2121       H  0.05280479  0.43455911  0.60464088     0.27000
H2122       H  0.06770258  0.28325679  0.65846011     0.21800
H2123       H  0.93345456  0.27175917  0.72933987     0.27100
H2124       H  0.98188544  0.29434116  0.61943462     0.15900
C2125       C  0.99241573  0.64591645  0.61377386    -0.11400
C2126       C  0.00608277  0.63935032  0.64113706     0.15200
C2127       C  0.01843742  0.61072890  0.64569514     0.02100
C2128       C  0.01806078  0.58990094  0.62235532    -0.15700
C2129       C  0.00473942  0.59651301  0.59463229    -0.10500
C2130       C  0.99145248  0.62494415  0.59065421     0.08800
C2131       C  0.00629449  0.66276563  0.66450210     0.09800
S2132       S  0.03438476  0.59917139  0.68086347    -0.24800
H2133       H  0.02800039  0.56816317  0.62607092     0.20100
S2134       S  0.97098529  0.63513496  0.55759834    -0.30500
H2135       H  0.98224141  0.66761835  0.61046113     0.10400
C2136       C  0.03252002  0.67832570  0.67226513     0.03600
C2137       C  0.03108292  0.70117945  0.69371105    -0.12800
C2138       C  0.00399301  0.70869309  0.70748237    -0.08500
C2139       C  0.97777728  0.69335374  0.69930475     0.07100
C2140       C  0.97922508  0.67049846  0.67812217    -0.13600
S2141       S  0.06759059  0.66952044  0.65445658    -0.30500
H2142       H  0.05103213  0.71317613  0.70006011     0.11300
S2143       S  0.94168581  0.70253036  0.71432710    -0.27600
H2144       H  0.95898917  0.65886198  0.67186217     0.08500
H2145       H  0.99703688  0.63775400  0.54021512     0.27000
H2146       H  0.08487981  0.69070499  0.66983943     0.21800
H2147       H  0.94776828  0.73289723  0.71912135     0.27100
H2148       H  0.01670329  0.61758267  0.69912303     0.15900
C2149       C  0.97107626  0.38862252  0.14903981    -0.11400
C2150       C  0.99070912  0.36431523  0.15014840     0.15200
C2151       C  0.00990785  0.35874783  0.12567002     0.02100
C2152       C  0.00974377  0.37816354  0.10121818    -0.15700
C2153       C  0.99027461  0.40260377  0.10022050    -0.10500
C2154       C  0.97033923  0.40757148  0.12425932     0.08800
C2155       C  0.98816615  0.34326229  0.17541076     0.09800
S2156       S  0.03470890  0.32706060  0.12385157    -0.24800
H2157       H  0.02501354  0.37421690  0.08284056     0.20100
S2158       S  0.94260720  0.43682337  0.12432047    -0.30500
H2159       H  0.95566572  0.39237982  0.16734004     0.10400
C2160       C  0.01169918  0.33816731  0.19565312     0.03600
C2161       C  0.00994900  0.31382189  0.21536347    -0.12800
C2162       C  0.98468416  0.29535131  0.21571739    -0.08500
C2163       C  0.95996684  0.30257973  0.19755069     0.07100
C2164       C  0.96209834  0.32624811  0.17748307    -0.13600
S2165       S  0.04414691  0.36202432  0.19567808    -0.30500
H2166       H  0.02890082  0.30818862  0.22917361     0.11300
S2167       S  0.92565952  0.28147614  0.19741952    -0.27600
H2168       H  0.94373876  0.33060641  0.16235676     0.08500
H2169       H  0.93783416  0.43696100  0.09330515     0.27000
H2170       H  0.05857973  0.34831120  0.21997552     0.21800
H2171       H  0.92879635  0.26878345  0.22588092     0.27100
H2172       H  0.01626478  0.30719292  0.13965490     0.15900
C2173       C  0.00827398  0.12487946  0.35295928    -0.11400
C2174       C  0.98706809  0.14707708  0.35923546     0.15200
C2175       C  0.96877009  0.14431851  0.38469773     0.02100
C2176       C  0.97232962  0.11970412  0.40349936    -0.15700
C2177       C  0.99370220  0.09756240  0.39748067    -0.10500
C2178       C  0.01195395  0.10027511  0.37189261     0.08800
C2179       C  0.98365751  0.17195333  0.33790142     0.09800
S2180       S  0.94020900  0.17105356  0.39420030    -0.24800
H2181       H  0.95811861  0.11771131  0.42300355     0.20100
S2182       S  0.04082660  0.07382644  0.36267699    -0.30500
H2183       H  0.02218595  0.12688811  0.33323486     0.10400
C2184       C  0.00510503  0.19482744  0.33570220     0.03600
C2185       C  0.00284794  0.21591519  0.31261177    -0.12800
C2186       C  0.97937765  0.21454937  0.29198527    -0.08500
C2187       C  0.95653627  0.19308290  0.29596720     0.07100
C2188       C  0.95914070  0.17184888  0.31863303    -0.13600
S2189       S  0.03563888  0.19661764  0.36189143    -0.30500
H2190       H  0.02033130  0.23227420  0.30951460     0.11300
S2191       S  0.92393973  0.19082505  0.27240782    -0.27600
H2192       H  0.94229963  0.15462978  0.32084127     0.08500
H2193       H  0.04931977  0.06809912  0.39237648     0.27000
H2194       H  0.04910178  0.22235793  0.34995107     0.21800
H2195       H  0.92476295  0.22038188  0.26203474     0.27100
H2196       H  0.95357193  0.19595867  0.38060021     0.15900
C2197       C  0.96527058  0.31681633  0.31987660    -0.11400
C2198       C  0.99323880  0.32925117  0.32652442     0.15200
C2199       C  0.01876311  0.31843749  0.31137906     0.02100
C2200       C  0.01576471  0.29537667  0.29045858    -0.15700
C2201       C  0.98776349  0.28335483  0.28353264    -0.10500
C2202       C  0.96228233  0.29424772  0.29831831     0.08800
C2203       C  0.99514995  0.35260606  0.35008218     0.09800
S2204       S  0.05560604  0.33350822  0.31717533    -0.24800
H2205       H  0.03535068  0.28698206  0.27903937     0.20100
S2206       S  0.92594590  0.27969086  0.28944120    -0.30500
H2207       H  0.94577930  0.32488400  0.33167271     0.10400
C2208       C  0.98171707  0.38086671  0.34648563     0.03600
C2209       C  0.98410792  0.40216163  0.36935800    -0.12800
C2210       C  0.99973970  0.39602531  0.39589946    -0.08500
C2211       C  0.01348596  0.36771277  0.39922998     0.07100
C2212       C  0.01066345  0.34632702  0.37656290    -0.13600
S2213       S  0.96209401  0.39020142  0.31248991    -0.30500
H2214       H  0.97346677  0.42368980  0.36665208     0.11300
S2215       S  0.03605308  0.35777849  0.43106274    -0.27600
H2216       H  0.02110415  0.32468497  0.37935619     0.08500
H2217       H  0.90953969  0.29916386  0.30782007     0.27000
H2218       H  0.95435358  0.41956007  0.32047281     0.21800
H2219       H  0.05007767  0.38579243  0.43318661     0.27100
H2220       H  0.04631287  0.36265246  0.32416441     0.15900
loop_ 
_geom_bond_atom_site_label_1 
_geom_bond_atom_site_label_2 
_geom_bond_distance 
_geom_bond_site_symmetry_2 
_ccdc_geom_bond_type 
N1            C5   1.354       .  A
N1            C2   1.357       .  A
N1         C2201   1.441       .  S
C2            C3   1.383       .  A
C2         C2186   1.475       .  S
C3            C4   1.371       .  A
C3            H6   1.082       .  S
C4            C5   1.381       .  A
C4            H7   1.082       .  S
C5         C2162   1.472       .  S
O8           C19   1.291       .  A
O8          Eu44   2.460       .  S
O9           C20   1.292       .  A
O9          Eu43   2.467       .  S
O10          C21   1.287       .  A
O10         Eu16   2.427   1_655  S
O11          C22   1.287       .  A
O11         Eu16   2.433       .  S
O12          C22   1.295       .  A
O12         Eu46   2.481       .  S
O13          C21   1.293       .  A
O13         Eu45   2.474       .  S
O14          C20   1.292       .  A
O14         Eu16   2.467       .  S
O15          C19   1.292       .  A
O15         Eu16   2.463       .  S
Eu16         O26   2.354       .  S
Eu16         O18   2.348   1_455  S
Eu16         O17   2.342       .  S
Eu16         O24   2.349   1_455  S
O17         Eu46   2.354       .  S
O17         Eu43   2.343       .  S
O18         Eu44   2.348   1_655  S
O18         Eu45   2.354       .  S
C19        C2210   1.488   1_455  S
C20        C2081   1.488       .  S
C21        C2018   1.487       .  S
C22        C1985   1.477       .  S
H23          O24   0.966       .  S
O24         Eu45   2.357       .  S
O24         Eu43   2.347   1_655  S
H25          O26   0.966       .  S
O26         Eu44   2.360       .  S
O26         Eu46   2.361       .  S
O27          C50   1.290       .  A
O27         Eu43   2.462       .  S
O28          C51   1.293       .  A
O28         Eu44   2.470       .  S
O29          C52   1.294       .  A
O29         Eu45   2.474       .  S
O30          C53   1.295       .  A
O30         Eu46   2.480       .  S
O31          C54   1.295       .  A
O31         Eu46   2.479       .  S
O32          C55   1.294       .  A
O32         Eu45   2.472       .  S
O33          C56   1.287       .  A
O33         Eu47   2.433   1_655  S
O34          C57   1.286       .  A
O34         Eu47   2.420       .  S
O35          C56   1.293       .  A
O35         Eu45   2.469       .  S
O36          C57   1.293       .  A
O36         Eu46   2.474       .  S
O37          C52   1.286       .  A
O37         Eu43   2.422   1_655  S
O38          C55   1.288       .  A
O38         Eu44   2.436   1_655  S
O39          C54   1.287       .  A
O39         Eu44   2.429       .  S
O40          C53   1.285       .  A
O40         Eu43   2.416       .  S
O41          C50   1.290       .  A
O41         Eu47   2.453       .  S
O42          C51   1.292       .  A
O42         Eu47   2.467       .  S
Eu43         O61   2.347       .  S
Eu43         O49   2.342   1_455  S
Eu44         O48   2.344       .  S
Eu44         O59   2.348   1_455  S
Eu45         O59   2.359       .  S
Eu45         O49   2.353       .  S
Eu46         O48   2.361       .  S
Eu46         O61   2.359       .  S
Eu47         O48   2.345       .  S
Eu47         O59   2.343   1_455  S
Eu47         O61   2.350       .  S
Eu47         O49   2.344   1_455  S
C50        C2129   1.489       .  S
C51        C2105   1.493       .  S
C52        C1961   1.474       .  S
C53        C1889   1.471       .  S
C54        C1937   1.474       .  S
C55        C1913   1.480       .  S
C56        C2066   1.475       .  S
C57        C2033   1.491       .  S
H58          O59   0.966       .  S
H60          O61   0.965       .  S
N62          C66   1.353       .  A
N62          C63   1.354   1_455  A
N62        C2138   1.439       .  S
C63          C64   1.382   1_655  A
C63        C1841   1.473       .  S
C64          C65   1.373       .  A
C64          H67   1.082   1_455  S
C65          C66   1.382       .  A
C65          H68   1.082       .  S
C66        C1865   1.473       .  S
N69          C73   1.360       .  A
N69          C70   1.357       .  A
N69        C2114   1.446       .  S
C70          C71   1.379       .  A
C70        C1817   1.469       .  S
C71          C72   1.367       .  A
C71          H74   1.082       .  S
C72          C73   1.382       .  A
C72          H75   1.082       .  S
C73        C1793   1.474       .  S
N76          C80   1.356       .  A
N76          C77   1.358       .  A
N76        C2090   1.444       .  S
C77          C78   1.381       .  A
C77        C1754   1.473       .  S
C78          C79   1.370       .  A
C78          H81   1.082       .  S
C79          C80   1.380       .  A
C79          H82   1.082       .  S
C80        C1778   1.471       .  S
O83          C94   1.293       .  A
O83        Eu119   2.472   1_545  S
O84          C95   1.294       .  A
O84        Eu118   2.471   1_545  S
O85          C96   1.290       .  A
O85         Eu91   2.450       .  S
O86          C97   1.290       .  A
O86         Eu91   2.456   1_455  S
O87          C97   1.292       .  A
O87        Eu121   2.468   1_545  S
O88          C96   1.293       .  A
O88        Eu120   2.470   1_545  S
O89          C95   1.287       .  A
O89         Eu91   2.435   1_455  S
O90          C94   1.287       .  A
O90         Eu91   2.433       .  S
Eu91        O101   2.354   1_655  S
Eu91         O93   2.345       .  S
Eu91         O92   2.341   1_655  S
Eu91         O99   2.357       .  S
O92        Eu121   2.344   1_545  S
O92        Eu118   2.354   1_545  S
O93        Eu119   2.352   1_545  S
O93        Eu120   2.347   1_545  S
C94        C2177   1.473       .  S
C95        C1826   1.476       .  S
C96        C1697   1.484       .  S
C97        C1730   1.483       .  S
H98          O99   0.966       .  S
O99        Eu120   2.358   1_545  S
O99        Eu118   2.362   1_645  S
H100        O101   0.966       .  S
O101       Eu119   2.359   1_445  S
O101       Eu121   2.353   1_545  S
O102        C125   1.294       .  A
O102       Eu118   2.473       .  S
O103        C126   1.291       .  A
O103       Eu119   2.463       .  S
O104        C127   1.287       .  A
O104       Eu120   2.430       .  S
O105        C128   1.286       .  A
O105       Eu121   2.420       .  S
O106        C129   1.286       .  A
O106       Eu121   2.423       .  S
O107        C130   1.289       .  A
O107       Eu120   2.442       .  S
O108        C131   1.291       .  A
O108       Eu122   2.459       .  S
O109        C132   1.290       .  A
O109       Eu122   2.460   1_455  S
O110        C131   1.293       .  A
O110       Eu120   2.474       .  S
O111        C132   1.293       .  A
O111       Eu121   2.474       .  S
O112        C127   1.297       .  A
O112       Eu118   2.489   1_655  S
O113        C130   1.293       .  A
O113       Eu119   2.469       .  S
O114        C129   1.294       .  A
O114       Eu119   2.473   1_455  S
O115        C128   1.296       .  A
O115       Eu118   2.485       .  S
O116        C125   1.286       .  A
O116       Eu122   2.430   1_455  S
O117        C126   1.287       .  A
O117       Eu122   2.427       .  S
Eu118       O136   2.356       .  S
Eu118       O124   2.358   1_455  S
Eu119       O123   2.353   1_655  S
Eu119       O134   2.362       .  S
Eu120       O134   2.350       .  S
Eu120       O124   2.351       .  S
Eu121       O123   2.342       .  S
Eu121       O136   2.344       .  S
Eu122       O123   2.342   1_655  S
Eu122       O134   2.353       .  S
Eu122       O136   2.348   1_655  S
Eu122       O124   2.346       .  S
C125       C1874   1.471       .  S
C126       C1769   1.474       .  S
C127       C1553   1.479       .  S
C128       C1586   1.481       .  S
C129       C1601   1.473       .  S
C130       C1625   1.479       .  S
C131       C1673   1.487       .  S
C132       C1649   1.489       .  S
H133        O134   0.966       .  S
H135        O136   0.965       .  S
N137        C141   1.357       .  A
N137        C138   1.357       .  A
N137       C1721   1.444       .  S
C138        C139   1.382       .  A
C138       C1946   1.472       .  S
C139        C140   1.370       .  A
C139        H142   1.082       .  S
C140        C141   1.382       .  A
C140        H143   1.082       .  S
C141       C1529   1.473       .  S
N144        C148   1.352       .  A
N144        C145   1.356       .  A
N144       C1706   1.439       .  S
C145        C146   1.382       .  A
C145       C1922   1.474       .  S
C146        C147   1.373       .  A
C146        H149   1.082       .  S
C147        C148   1.381       .  A
C147        H150   1.082       .  S
C148       C1514   1.471       .  S
N151        C155   1.357       .  A
N151        C152   1.361       .  A
N151       C1682   1.448       .  S
C152        C153   1.384       .  A
C152       C1490   1.478       .  S
C153        C154   1.367       .  A
C153        H156   1.082       .  S
C154        C155   1.378       .  A
C154        H157   1.082       .  S
C155       C1970   1.470       .  S
N158        C162   1.362       .  A
N158        C159   1.360       .  A
N158       C1658   1.449       .  S
C159        C160   1.380       .  A
C159       C1898   1.473       .  S
C160        C161   1.366       .  A
C160        H163   1.082       .  S
C161        C162   1.382       .  A
C161        H164   1.083       .  S
C162       C1466   1.476       .  S
N165        C169   1.360       .  A
N165        C166   1.358       .  A
N165       C1433   1.448       .  S
C166        C167   1.380       .  A
C166       C1634   1.474       .  S
C167        C168   1.369       .  A
C167        H170   1.082       .  S
C168        C169   1.383       .  A
C168        H171   1.082       .  S
C169       C1418   1.476       .  S
O172        C183   1.295       .  A
O172       Eu208   2.481       .  S
O173        C184   1.294       .  A
O173       Eu207   2.476       .  S
O174        C185   1.292       .  A
O174       Eu180   2.466       .  S
O175        C186   1.293       .  A
O175       Eu180   2.475       .  S
O176        C186   1.289       .  A
O176       Eu210   2.450       .  S
O177        C185   1.293       .  A
O177       Eu209   2.471       .  S
O178        C184   1.286       .  A
O178       Eu180   2.420       .  S
O179        C183   1.287       .  A
O179       Eu180   2.430   1_545  S
Eu180       O190   2.343   1_565  S
Eu180       O182   2.350   1_565  S
Eu180       O181   2.346       .  S
Eu180       O188   2.352       .  S
O181       Eu210   2.342       .  S
O181       Eu207   2.354       .  S
O182       Eu208   2.360       .  S
O182       Eu209   2.353   1_545  S
C183       C1538   1.476       .  S
C184       C1457   1.473       .  S
C185       C1346   1.491   1_565  S
C186       C1394   1.488       .  S
H187        O188   0.966       .  S
O188       Eu209   2.349       .  S
O188       Eu207   2.366       .  S
H189        O190   0.965       .  S
O190       Eu208   2.359       .  S
O190       Eu210   2.345   1_545  S
O191        C214   1.297       .  A
O191       Eu207   2.490       .  S
O192        C215   1.295       .  A
O192       Eu208   2.482       .  S
O193        C216   1.288       .  A
O193       Eu209   2.430       .  S
O194        C217   1.288       .  A
O194       Eu210   2.440       .  S
O195        C218   1.286       .  A
O195       Eu210   2.425   1_545  S
O196        C219   1.287       .  A
O196       Eu209   2.436   1_545  S
O197        C220   1.291       .  A
O197       Eu211   2.465       .  S
O198        C221   1.292       .  A
O198       Eu211   2.468       .  S
O199        C220   1.293       .  A
O199       Eu209   2.470       .  S
O200        C221   1.290       .  A
O200       Eu210   2.456       .  S
O201        C216   1.292       .  A
O201       Eu207   2.466       .  S
O202        C219   1.295       .  A
O202       Eu208   2.482       .  S
O203        C218   1.294       .  A
O203       Eu208   2.473       .  S
O204        C217   1.294       .  A
O204       Eu207   2.476       .  S
O205        C214   1.285       .  A
O205       Eu211   2.422       .  S
O206        C215   1.285       .  A
O206       Eu211   2.421   1_545  S
Eu207       O225   2.356       .  S
Eu207       O213   2.357       .  S
Eu208       O212   2.363       .  S
Eu208       O223   2.359       .  S
Eu209       O223   2.346   1_565  S
Eu209       O213   2.351       .  S
Eu210       O212   2.351   1_565  S
Eu210       O225   2.341       .  S
Eu211       O212   2.346   1_565  S
Eu211       O223   2.349   1_565  S
Eu211       O225   2.351       .  S
Eu211       O213   2.347       .  S
C214       C1481   1.482       .  S
C215       C1505   1.473       .  S
C216       C1274   1.480       .  S
C217       C1313   1.481       .  S
C218       C1289   1.473       .  S
C219       C1241   1.475       .  S
C220       C1442   1.493       .  S
C221       C1361   1.487       .  S
H222        O223   0.966       .  S
H224        O225   0.966       .  S
N226        C230   1.360       .  A
N226        C227   1.358       .  A
N226       C1385   1.444       .  S
C227        C228   1.381       .  A
C227       C1217   1.476       .  S
C228        C229   1.368       .  A
C228        H231   1.082       .  S
C229        C230   1.382       .  A
C229        H232   1.082       .  S
C230       C1577   1.477       .  S
N233        C237   1.355       .  A
N233        C234   1.359       .  A
N233       C1370   1.443       .  S
C234        C235   1.382       .  A
C234       C1562   1.477       .  S
C235        C236   1.371       .  A
C235        H238   1.082       .  S
C236        C237   1.380       .  A
C236        H239   1.082       .  S
C237       C1202   1.470       .  S
N240        C244   1.356   1_545  A
N240        C241   1.360       .  A
N240       C1337   1.448       .  S
C241        C242   1.383   1_545  A
C241       C1169   1.474       .  S
C242        C243   1.367       .  A
C242        H245   1.082   1_565  S
C243        C244   1.379       .  A
C243        H246   1.082       .  S
C244       C1610   1.468       .  S
O247        C258   1.293       .  A
O247       Eu283   2.470   1_554  S
O248        C259   1.294       .  A
O248       Eu282   2.473   1_554  S
O249        C260   1.294       .  A
O249       Eu255   2.472   1_545  S
O250        C261   1.292       .  A
O250       Eu255   2.469       .  S
O251        C261   1.292       .  A
O251       Eu285   2.466   1_554  S
O252        C260   1.290       .  A
O252       Eu284   2.459   1_554  S
O253        C259   1.287       .  A
O253       Eu255   2.430       .  S
O254        C258   1.288       .  A
O254       Eu255   2.437       .  S
Eu255       O265   2.351       .  S
Eu255       O257   2.347   1_565  S
Eu255       O256   2.350       .  S
Eu255       O263   2.356   1_565  S
O256       Eu285   2.344   1_554  S
O256       Eu282   2.355   1_554  S
O257       Eu283   2.352   1_544  S
O257       Eu284   2.353   1_554  S
C258       C1409   1.468       .  S
C259       C1178   1.467       .  S
C260       C1145   1.498       .  S
C261       C1121   1.493       .  S
H262        O263   0.965       .  S
O263       Eu284   2.349   1_554  S
O263       Eu282   2.363   1_544  S
H264        O265   0.965       .  S
O265       Eu283   2.363   1_554  S
O265       Eu285   2.345   1_554  S
O266        C289   1.294       .  A
O266       Eu282   2.474       .  S
O267        C290   1.292       .  A
O267       Eu283   2.463       .  S
O268        C291   1.289       .  A
O268       Eu284   2.441       .  S
O269        C292   1.286       .  A
O269       Eu285   2.428       .  S
O270        C293   1.285       .  A
O270       Eu285   2.415       .  S
O271        C294   1.288       .  A
O271       Eu284   2.444       .  S
O272        C295   1.290       .  A
O272       Eu286   2.459   1_545  S
O273        C296   1.290       .  A
O273       Eu286   2.456       .  S
O274        C295   1.294       .  A
O274       Eu284   2.474       .  S
O275        C296   1.292       .  A
O275       Eu285   2.465       .  S
O276        C291   1.294       .  A
O276       Eu282   2.473   1_545  S
O277        C294   1.296       .  A
O277       Eu283   2.483   1_545  S
O278        C293   1.294       .  A
O278       Eu283   2.478       .  S
O279        C292   1.294       .  A
O279       Eu282   2.476       .  S
O280        C289   1.288       .  A
O280       Eu286   2.440       .  S
O281        C290   1.288       .  A
O281       Eu286   2.440       .  S
Eu282       O300   2.357       .  S
Eu282       O288   2.357   1_565  S
Eu283       O287   2.354       .  S
Eu283       O298   2.364   1_565  S
Eu284       O298   2.346       .  S
Eu284       O288   2.348       .  S
Eu285       O287   2.349       .  S
Eu285       O300   2.341       .  S
Eu286       O287   2.343       .  S
Eu286       O298   2.352   1_565  S
Eu286       O300   2.352       .  S
Eu286       O288   2.347   1_565  S
C289       C1226   1.473       .  S
C290       C1193   1.472       .  S
C291       C1049   1.478       .  S
C292       C1001   1.471       .  S
C293       C1025   1.475       .  S
C294        C977   1.492   1_556  S
C295       C1073   1.495       .  S
C296       C1106   1.486       .  S
H297        O298   0.966       .  S
H299        O300   0.965       .  S
N301        C305   1.356       .  A
N301        C302   1.358       .  A
N301       C1154   1.443       .  S
C302        C303   1.383       .  A
C302        C953   1.477       .  S
C303        C304   1.370       .  A
C303        H306   1.082       .  S
C304        C305   1.382       .  A
C304        H307   1.082       .  S
C305       C1250   1.477       .  S
N308        C312   1.355       .  A
N308        C309   1.358       .  A
N308       C1130   1.445       .  S
C309        C310   1.383       .  A
C309        C929   1.471       .  S
C310        C311   1.368       .  A
C310        H313   1.082       .  S
C311        C312   1.378       .  A
C311        H314   1.082       .  S
C312       C1265   1.465       .  S
N315        C319   1.357       .  A
N315        C316   1.358       .  A
N315       C1097   1.444       .  S
C316        C317   1.380       .  A
C316        C914   1.472       .  S
C317        C318   1.369       .  A
C317        H320   1.082       .  S
C318        C319   1.382       .  A
C318        H321   1.082       .  S
C319       C1322   1.475       .  S
N322        C326   1.357       .  A
N322        C323   1.359       .  A
N322       C1082   1.448       .  S
C323        C324   1.383       .  A
C323        C890   1.472       .  S
C324        C325   1.367       .  A
C324        H327   1.082       .  S
C325        C326   1.379       .  A
C325        H328   1.082       .  S
C326       C1298   1.470       .  S
O329        C340   1.293       .  A
O329       Eu365   2.469   1_554  S
O330        C341   1.295       .  A
O330       Eu364   2.481   1_554  S
O331        C342   1.291       .  A
O331       Eu337   2.458   1_455  S
O332        C343   1.290       .  A
O332       Eu337   2.457       .  S
O333        C343   1.293       .  A
O333       Eu367   2.475   1_554  S
O334        C342   1.291       .  A
O334       Eu366   2.461   1_554  S
O335        C341   1.285       .  A
O335       Eu337   2.420       .  S
O336        C340   1.286       .  A
O336       Eu337   2.431       .  S
Eu337       O347   2.346       .  S
Eu337       O339   2.342   1_655  S
Eu337       O338   2.347       .  S
Eu337       O345   2.353   1_655  S
O338       Eu367   2.351   1_554  S
O338       Eu364   2.359   1_554  S
O339       Eu365   2.352   1_454  S
O339       Eu366   2.349   1_554  S
C340       C2153   1.470       .  S
C341       C1745   1.475   1_655  S
C342        C833   1.482       .  S
C343        C857   1.489       .  S
H344        O345   0.966       .  S
O345       Eu366   2.348   1_554  S
O345       Eu364   2.356   1_454  S
H346        O347   0.965       .  S
O347       Eu365   2.356   1_554  S
O347       Eu367   2.348   1_554  S
O348        C371   1.294       .  A
O348       Eu364   2.474   1_455  S
O349        C372   1.291       .  A
O349       Eu365   2.459       .  S
O350        C373   1.288       .  A
O350       Eu366   2.438       .  S
O351        C374   1.286       .  A
O351       Eu367   2.431       .  S
O352        C375   1.289       .  A
O352       Eu367   2.444       .  S
O353        C376   1.286   1_556  A
O353       Eu366   2.424       .  S
O354        C377   1.294       .  A
O354       Eu368   2.474   1_455  S
O355        C378   1.293       .  A
O355       Eu368   2.467       .  S
O356        C377   1.291       .  A
O356       Eu366   2.463       .  S
O357        C378   1.292       .  A
O357       Eu367   2.466       .  S
O358        C373   1.294       .  A
O358       Eu364   2.476   1_455  S
O359        C376   1.296       .  A
O359       Eu365   2.484   1_454  S
O360        C375   1.295       .  A
O360       Eu365   2.480       .  S
O361        C374   1.294       .  A
O361       Eu364   2.476       .  S
O362        C371   1.288       .  A
O362       Eu368   2.437   1_455  S
O363        C372   1.289       .  A
O363       Eu368   2.445       .  S
Eu364       O382   2.356       .  S
Eu364       O370   2.359   1_655  S
Eu365       O369   2.360       .  S
Eu365       O380   2.362   1_655  S
Eu366       O380   2.353       .  S
Eu366       O370   2.345       .  S
Eu367       O369   2.351       .  S
Eu367       O382   2.353       .  S
Eu368       O369   2.352       .  S
Eu368       O380   2.352   1_655  S
Eu368       O382   2.355       .  S
Eu368       O370   2.349   1_655  S
C371       C1850   1.477       .  S
C372       C1802   1.468       .  S
C373        C737   1.480       .  S
C374        C689   1.469       .  S
C375        C713   1.481       .  S
C376        C761   1.479       .  S
C377        C809   1.489       .  S
C378        C785   1.493       .  S
H379        O380   0.966       .  S
H381        O382   0.966       .  S
N383        C387   1.358       .  A
N383        C384   1.358       .  A
N383        C866   1.447       .  S
C384        C385   1.381       .  A
C384        C674   1.470       .  S
C385        C386   1.368       .  A
C385        H388   1.082       .  S
C386        C387   1.381       .  A
C386        H389   1.082       .  S
C387       C2009   1.471       .  S
N390        C394   1.358       .  A
N390        C391   1.356       .  A
N390        C842   1.444       .  S
C391        C392   1.381       .  A
C391        C650   1.473       .  S
C392        C393   1.369       .  A
C392        H395   1.082       .  S
C393        C394   1.382       .  A
C393        H396   1.082       .  S
C394       C1994   1.475       .  S
N397        C401   1.355       .  A
N397        C398   1.357       .  A
N397        C818   1.445       .  S
C398        C399   1.381       .  A
C398       C2042   1.467       .  S
C399        C400   1.368       .  A
C399        H402   1.082       .  S
C400        C401   1.380       .  A
C400        H403   1.082       .  S
C401        C617   1.466       .  S
N404        C408   1.356       .  A
N404        C405   1.359       .  A
N404        C794   1.444       .  S
C405        C406   1.383       .  A
C405       C2057   1.477       .  S
C406        C407   1.371       .  A
C406        H409   1.082       .  S
C407        C408   1.380       .  A
C407        H410   1.082       .  S
C408        C593   1.472       .  S
N411        C415   1.361       .  A
N411        C412   1.362       .  A
N411        C569   1.448       .  S
C412        C413   1.381       .  A
C412       C1058   1.478       .  S
C413        C414   1.368       .  A
C413        H416   1.082       .  S
C414        C415   1.381       .  A
C414        H417   1.082   1_556  S
C415        C770   1.479   1_556  S
O418        C429   1.294       .  A
O418       Eu454   2.474       .  S
O419        C430   1.294       .  A
O419       Eu453   2.476       .  S
O420        C431   1.293       .  A
O420       Eu426   2.475       .  S
O421        C432   1.291       .  A
O421       Eu426   2.458       .  S
O422        C432   1.290       .  A
O422       Eu456   2.452       .  S
O423        C431   1.293       .  A
O423       Eu455   2.472       .  S
O424        C430   1.286       .  A
O424       Eu426   2.431       .  S
O425        C429   1.284       .  A
O425       Eu426   2.421   1_554  S
Eu426       O436   2.355   1_556  S
Eu426       O428   2.343   1_556  S
Eu426       O427   2.353       .  S
Eu426       O434   2.344       .  S
O427       Eu456   2.352       .  S
O427       Eu453   2.358       .  S
O428       Eu454   2.354       .  S
O428       Eu455   2.340   1_554  S
C429        C962   1.461       .  S
C430        C881   1.469       .  S
C431        C578   1.496       .  S
C432        C506   1.480       .  S
H433        O434   0.965       .  S
O434       Eu455   2.347       .  S
O434       Eu453   2.360       .  S
H435        O436   0.963       .  S
O436       Eu454   2.359       .  S
O436       Eu456   2.353   1_554  S
O437        C460   1.295       .  A
O437       Eu453   2.481       .  S
O438        C461   1.294       .  A
O438       Eu454   2.471       .  S
O439        C462   1.288       .  A
O439       Eu455   2.432       .  S
O440        C463   1.287       .  A
O440       Eu456   2.430       .  S
O441        C464   1.287       .  A
O441       Eu456   2.428   1_554  S
O442        C465   1.288       .  A
O442       Eu455   2.436   1_554  S
O443        C466   1.291       .  A
O443       Eu457   2.463       .  S
O444        C467   1.292       .  A
O444       Eu457   2.469       .  S
O445        C466   1.292       .  A
O445       Eu455   2.462       .  S
O446        C467   1.292       .  A
O446       Eu456   2.467       .  S
O447        C462   1.294       .  A
O447       Eu453   2.472       .  S
O448        C465   1.295       .  A
O448       Eu454   2.481       .  S
O449        C464   1.293       .  A
O449       Eu454   2.475       .  S
O450        C463   1.294       .  A
O450       Eu453   2.475       .  S
O451        C460   1.285       .  A
O451       Eu457   2.416       .  S
O452        C461   1.286       .  A
O452       Eu457   2.423   1_554  S
Eu453       O471   2.354       .  S
Eu453       O459   2.359       .  S
Eu454       O458   2.354       .  S
Eu454       O469   2.359       .  S
Eu455       O469   2.352   1_556  S
Eu455       O459   2.351       .  S
Eu456       O458   2.347   1_556  S
Eu456       O471   2.343       .  S
Eu457       O458   2.343   1_556  S
Eu457       O469   2.352   1_556  S
Eu457       O471   2.347       .  S
Eu457       O459   2.349       .  S
C460        C905   1.474       .  S
C461        C938   1.472       .  S
C462        C626   1.474       .  S
C463        C602   1.478       .  S
C464        C665   1.493       .  S
C465        C641   1.478       .  S
C466        C521   1.483       .  S
C467        C545   1.486       .  S
H468        O469   0.966       .  S
H470        O471   0.966       .  S
N472        C476   1.361       .  A
N472        C473   1.359       .  A
N472        C554   1.450       .  S
C473        C474   1.379       .  A
C473       C1034   1.471       .  S
C474        C475   1.365       .  A
C474        H477   1.082       .  S
C475        C476   1.383       .  A
C475        H478   1.082       .  S
C476        C698   1.472       .  S
N479        C483   1.360       .  A
N479        C480   1.357       .  A
N479        C530   1.444       .  S
C480        C481   1.381       .  A
C480       C1010   1.474       .  S
C481        C482   1.370       .  A
C481        H484   1.082       .  S
C482        C483   1.381       .  A
C482        H485   1.082       .  S
C483        C746   1.478       .  S
N486        C490   1.356       .  A
N486        C487   1.357       .  A
N486        C497   1.440       .  S
C487        C488   1.382       .  A
C487        C722   1.480       .  S
C488        C489   1.375       .  A
C488        H491   1.082       .  S
C489        C490   1.381       .  A
C489        H492   1.082       .  S
C490        C986   1.479       .  S
C493        C494   1.403   1_556  A
C493        C498   1.402       .  A
C493        H503   1.084       .  S
C494        C495   1.411       .  A
C494        C499   1.478       .  S
C495        C496   1.396       .  A
C495        S500   1.806       .  S
C496        C497   1.403       .  A
C496        H501   1.082       .  S
C497        C498   1.412   1_554  A
C498        S502   1.802       .  S
C499        C504   1.408       .  A
C499        C508   1.401   1_554  A
S500        H516   1.405       .  S
S502        H513   1.404       .  S
C504        C505   1.402       .  A
C504        S509   1.807       .  S
C505        C506   1.406   1_554  A
C505        H510   1.083       .  S
C506        C507   1.416       .  A
C507        C508   1.400       .  A
C507        S511   1.804       .  S
C508        H512   1.084       .  S
S509        H514   1.407       .  S
S511        H515   1.408       .  S
C517        C518   1.404       .  A
C517        C522   1.401       .  A
C517        H527   1.084       .  S
C518        C519   1.415   1_556  A
C518        C523   1.486       .  S
C519        C520   1.402       .  A
C519        S524   1.806       .  S
C520        C521   1.406   1_554  A
C520        H525   1.084       .  S
C521        C522   1.415       .  A
C522        S526   1.804       .  S
C523        C528   1.411   1_556  A
C523        C532   1.403       .  A
S524        H540   1.404       .  S
S526        H537   1.407       .  S
C528        C529   1.407       .  A
C528        S533   1.806       .  S
C529        C530   1.405   1_554  A
C529        H534   1.082       .  S
C530        C531   1.412       .  A
C531        C532   1.400       .  A
C531        S535   1.801       .  S
C532        H536   1.084       .  S
S533        H538   1.407       .  S
S535        H539   1.406       .  S
C541        C542   1.404   1_554  A
C541        C546   1.403       .  A
C541        H551   1.084       .  S
C542        C543   1.414       .  A
C542        C547   1.488       .  S
C543        C544   1.404       .  A
C543        S548   1.805       .  S
C544        C545   1.406       .  A
C544        H549   1.084       .  S
C545        C546   1.415   1_556  A
C546        S550   1.804       .  S
C547        C552   1.409       .  A
C547        C556   1.402   1_556  A
S548        H564   1.406       .  S
S550        H561   1.407       .  S
C552        C553   1.406       .  A
C552        S557   1.806       .  S
C553        C554   1.407       .  A
C553        H558   1.082       .  S
C554        C555   1.418   1_556  A
C555        C556   1.403       .  A
C555        S559   1.801       .  S
C556        H560   1.084       .  S
S557        H562   1.407       .  S
S559        H563   1.397       .  S
C565        C566   1.403       .  A
C565        C570   1.404       .  A
C565        H575   1.084       .  S
C566        C567   1.414   1_556  A
C566        C571   1.490       .  S
C567        C568   1.403       .  A
C567        S572   1.804       .  S
C568        C569   1.405   1_554  A
C568        H573   1.083       .  S
C569        C570   1.417       .  A
C570        S574   1.804       .  S
C571        C576   1.410   1_556  A
C571        C580   1.401       .  A
S572        H588   1.404       .  S
S574        H585   1.402       .  S
C576        C577   1.411       .  A
C576        S581   1.806       .  S
C577        C578   1.410   1_554  A
C577        H582   1.083       .  S
C578        C579   1.419       .  A
C579        C580   1.403       .  A
C579        S583   1.803       .  S
C580        H584   1.084       .  S
S581        H586   1.406       .  S
S583        H587   1.407       .  S
C589        C590   1.402       .  A
C589        C594   1.397       .  A
C589        H599   1.084       .  S
C590        C591   1.412       .  A
C590        C595   1.476       .  S
C591        C592   1.398       .  A
C591        S596   1.804       .  S
C592        C593   1.402       .  A
C592        H597   1.084       .  S
C593        C594   1.410       .  A
C594        S598   1.799       .  S
C595        C600   1.406       .  A
C595        C604   1.403       .  A
S596        H612   1.405       .  S
S598        H609   1.406       .  S
C600        C601   1.401       .  A
C600        S605   1.806       .  S
C601        C602   1.409       .  A
C601        H606   1.083       .  S
C602        C603   1.413       .  A
C603        C604   1.398       .  A
C603        S607   1.804       .  S
C604        H608   1.084       .  S
S605        H610   1.407       .  S
S607        H611   1.408       .  S
C613        C614   1.404       .  A
C613        C618   1.397       .  A
C613        H623   1.084       .  S
C614        C615   1.413       .  A
C614        C619   1.475       .  S
C615        C616   1.395       .  A
C615        S620   1.806       .  S
C616        C617   1.401       .  A
C616        H621   1.084       .  S
C617        C618   1.408       .  A
C618        S622   1.800       .  S
C619        C624   1.406       .  A
C619        C628   1.404       .  A
S620        H636   1.405       .  S
S622        H633   1.406       .  S
C624        C625   1.399       .  A
C624        S629   1.807       .  S
C625        C626   1.406       .  A
C625        H630   1.083       .  S
C626        C627   1.413       .  A
C627        C628   1.398       .  A
C627        S631   1.804       .  S
C628        H632   1.084       .  S
S629        H634   1.407       .  S
S631        H635   1.406       .  S
C637        C638   1.399       .  A
C637        C642   1.396       .  A
C637        H647   1.084       .  S
C638        C639   1.415       .  A
C638        C643   1.480       .  S
C639        C640   1.402       .  A
C639        S644   1.804       .  S
C640        C641   1.403       .  A
C640        H645   1.084       .  S
C641        C642   1.417       .  A
C642        S646   1.804       .  S
C643        C648   1.411       .  A
C643        C652   1.401       .  A
S644        H660   1.406       .  S
S646        H657   1.407       .  S
C648        C649   1.404       .  A
C648        S653   1.806       .  S
C649        C650   1.402       .  A
C649        H654   1.082       .  S
C650        C651   1.412       .  A
C651        C652   1.396       .  A
C651        S655   1.805       .  S
C652        H656   1.084       .  S
S653        H658   1.407       .  S
S655        H659   1.406       .  S
C661        C662   1.401       .  A
C661        C666   1.397       .  A
C661        H671   1.084       .  S
C662        C663   1.405       .  A
C662        C667   1.474       .  S
C663        C664   1.396       .  A
C663        S668   1.806       .  S
C664        C665   1.415       .  A
C664        H669   1.083       .  S
C665        C666   1.420       .  A
C666        S670   1.802       .  S
C667        C672   1.407       .  A
C667        C676   1.403       .  A
S668        H684   1.406       .  S
S670        H681   1.403       .  S
C672        C673   1.396       .  A
C672        S677   1.807       .  S
C673        C674   1.402       .  A
C673        H678   1.083       .  S
C674        C675   1.413       .  A
C675        C676   1.398       .  A
C675        S679   1.804       .  S
C676        H680   1.084       .  S
S677        H682   1.407       .  S
S679        H683   1.405       .  S
C685        C686   1.399   1_554  A
C685        C690   1.394       .  A
C685        H695   1.084       .  S
C686        C687   1.413       .  A
C686        C691   1.472       .  S
C687        C688   1.400       .  A
C687        S692   1.805       .  S
C688        C689   1.402       .  A
C688        H693   1.084       .  S
C689        C690   1.414   1_556  A
C690        S694   1.805       .  S
C691        C696   1.409       .  A
C691        C700   1.396   1_556  A
S692        H708   1.405       .  S
S694        H705   1.404       .  S
C696        C697   1.405       .  A
C696        S701   1.805       .  S
C697        C698   1.404       .  A
C697        H702   1.083       .  S
C698        C699   1.416   1_556  A
C699        C700   1.390       .  A
C699        S703   1.809       .  S
C700        H704   1.084       .  S
S701        H706   1.407       .  S
S703        H707   1.401       .  S
C709        C710   1.401       .  A
C709        C714   1.398       .  A
C709        H719   1.084       .  S
C710        C711   1.411   1_554  A
C710        C715   1.480       .  S
C711        C712   1.403       .  A
C711        S716   1.804       .  S
C712        C713   1.408       .  A
C712        H717   1.084       .  S
C713        C714   1.414   1_556  A
C714        S718   1.803       .  S
C715        C720   1.406   1_554  A
C715        C724   1.404       .  A
S716        H732   1.405       .  S
S718        H729   1.405       .  S
C720        C721   1.400   1_556  A
C720        S725   1.807       .  S
C721        C722   1.405       .  A
C721        H726   1.083   1_554  S
C722        C723   1.414       .  A
C723        C724   1.403       .  A
C723        S727   1.804       .  S
C724        H728   1.084       .  S
S725        H730   1.406       .  S
S727        H731   1.404       .  S
C733        C734   1.404   1_554  A
C733        C738   1.401       .  A
C733        H743   1.084       .  S
C734        C735   1.409       .  A
C734        C739   1.480       .  S
C735        C736   1.398       .  A
C735        S740   1.804       .  S
C736        C737   1.407       .  A
C736        H741   1.084       .  S
C737        C738   1.414   1_556  A
C738        S742   1.804       .  S
C739        C744   1.408       .  A
C739        C748   1.403   1_556  A
S740        H756   1.406       .  S
S742        H753   1.408       .  S
C744        C745   1.401       .  A
C744        S749   1.807       .  S
C745        C746   1.404       .  A
C745        H750   1.083       .  S
C746        C747   1.414   1_556  A
C747        C748   1.401       .  A
C747        S751   1.802       .  S
C748        H752   1.084       .  S
S749        H754   1.407       .  S
S751        H755   1.405       .  S
C757        C758   1.405   1_556  A
C757        C762   1.399       .  A
C757        H767   1.084       .  S
C758        C759   1.411       .  A
C758        C763   1.477       .  S
C759        C760   1.398       .  A
C759        S764   1.809       .  S
C760        C761   1.408       .  A
C760        H765   1.084       .  S
C761        C762   1.411   1_554  A
C762        S766   1.800       .  S
C763        C768   1.407       .  A
C763        C772   1.403   1_554  A
S764        H780   1.401       .  S
S766        H777   1.407       .  S
C768        C769   1.401       .  A
C768        S773   1.807       .  S
C769        C770   1.405       .  A
C769        H774   1.083       .  S
C770        C771   1.412   1_554  A
C771        C772   1.401       .  A
C771        S775   1.799       .  S
C772        H776   1.084       .  S
S773        H778   1.407       .  S
S775        H779   1.406       .  S
C781        C782   1.401       .  A
C781        C786   1.401       .  A
C781        H791   1.084       .  S
C782        C783   1.411       .  A
C782        C787   1.481       .  S
C783        C784   1.401       .  A
C783        S788   1.806       .  S
C784        C785   1.408       .  A
C784        H789   1.082       .  S
C785        C786   1.420       .  A
C786        S790   1.803       .  S
C787        C792   1.409       .  A
C787        C796   1.400       .  A
S788        H804   1.404       .  S
S790        H801   1.408       .  S
C792        C793   1.406       .  A
C792        S797   1.805       .  S
C793        C794   1.405       .  A
C793        H798   1.082       .  S
C794        C795   1.415       .  A
C795        C796   1.399       .  A
C795        S799   1.799       .  S
C796        H800   1.084       .  S
S797        H802   1.407       .  S
S799        H803   1.400       .  S
C805        C806   1.403       .  A
C805        C810   1.404       .  A
C805        H815   1.084       .  S
C806        C807   1.413       .  A
C806        C811   1.488       .  S
C807        C808   1.403       .  A
C807        S812   1.804       .  S
C808        C809   1.406       .  A
C808        H813   1.084       .  S
C809        C810   1.418       .  A
C810        S814   1.805       .  S
C811        C816   1.411       .  A
C811        C820   1.402       .  A
S812        H828   1.405       .  S
S814        H825   1.407       .  S
C816        C817   1.406       .  A
C816        S821   1.806       .  S
C817        C818   1.405       .  A
C817        H822   1.082       .  S
C818        C819   1.415       .  A
C819        C820   1.402       .  A
C819        S823   1.803       .  S
C820        H824   1.084       .  S
S821        H826   1.407       .  S
S823        H827   1.402       .  S
C829        C830   1.403       .  A
C829        C834   1.399       .  A
C829        H839   1.084       .  S
C830        C831   1.414       .  A
C830        C835   1.484       .  S
C831        C832   1.402       .  A
C831        S836   1.806       .  S
C832        C833   1.406       .  A
C832        H837   1.084       .  S
C833        C834   1.415       .  A
C834        S838   1.805       .  S
C835        C840   1.411       .  A
C835        C844   1.402       .  A
S836        H852   1.405       .  S
S838        H849   1.408       .  S
C840        C841   1.406       .  A
C840        S845   1.806       .  S
C841        C842   1.405       .  A
C841        H846   1.082       .  S
C842        C843   1.412       .  A
C843        C844   1.399       .  A
C843        S847   1.798       .  S
C844        H848   1.084       .  S
S845        H850   1.407       .  S
S847        H851   1.406       .  S
C853        C854   1.402       .  A
C853        C858   1.403       .  A
C853        H863   1.084       .  S
C854        C855   1.413       .  A
C854        C859   1.487       .  S
C855        C856   1.404       .  A
C855        S860   1.805       .  S
C856        C857   1.407       .  A
C856        H861   1.084       .  S
C857        C858   1.419       .  A
C858        S862   1.804       .  S
C859        C864   1.409       .  A
C859        C868   1.401       .  A
S860        H876   1.405       .  S
S862        H873   1.405       .  S
C864        C865   1.407       .  A
C864        S869   1.806       .  S
C865        C866   1.405       .  A
C865        H870   1.082       .  S
C866        C867   1.417       .  A
C867        C868   1.402       .  A
C867        S871   1.804       .  S
C868        H872   1.084       .  S
S869        H874   1.406       .  S
S871        H875   1.402       .  S
C877        C878   1.400       .  A
C877        C882   1.397       .  A
C877        H887   1.083       .  S
C878        C879   1.415       .  A
C878        C883   1.475       .  S
C879        C880   1.400       .  A
C879        S884   1.804       .  S
C880        C881   1.401       .  A
C880        H885   1.084       .  S
C881        C882   1.412       .  A
C882        S886   1.808       .  S
C883        C888   1.410       .  A
C883        C892   1.398       .  A
S884        H900   1.405       .  S
S886        H897   1.407       .  S
C888        C889   1.404       .  A
C888        S893   1.805       .  S
C889        C890   1.404       .  A
C889        H894   1.083       .  S
C890        C891   1.415       .  A
C891        C892   1.391       .  A
C891        S895   1.809       .  S
C892        H896   1.084       .  S
S893        H898   1.407       .  S
S895        H899   1.400       .  S
C901        C902   1.404       .  A
C901        C906   1.399       .  A
C901        H911   1.084       .  S
C902        C903   1.407       .  A
C902        C907   1.472       .  S
C903        C904   1.395       .  A
C903        S908   1.805       .  S
C904        C905   1.408       .  A
C904        H909   1.084       .  S
C905        C906   1.412       .  A
C906        S910   1.803       .  S
C907        C912   1.407       .  A
C907        C916   1.401       .  A
S908        H924   1.406       .  S
S910        H921   1.408       .  S
C912        C913   1.399       .  A
C912        S917   1.807       .  S
C913        C914   1.404       .  A
C913        H918   1.083       .  S
C914        C915   1.412       .  A
C915        C916   1.398       .  A
C915        S919   1.803       .  S
C916        H920   1.084       .  S
S917        H922   1.407       .  S
S919        H923   1.405       .  S
C925        C926   1.403       .  A
C925        C930   1.400       .  A
C925        H935   1.084       .  S
C926        C927   1.410       .  A
C926        C931   1.468       .  S
C927        C928   1.392       .  A
C927        S932   1.809       .  S
C928        C929   1.403       .  A
C928        H933   1.084       .  S
C929        C930   1.412       .  A
C930        S934   1.802       .  S
C931        C936   1.404       .  A
C931        C940   1.401       .  A
S932        H948   1.400       .  S
S934        H945   1.405       .  S
C936        C937   1.398       .  A
C936        S941   1.806       .  S
C937        C938   1.407       .  A
C937        H942   1.083       .  S
C938        C939   1.413       .  A
C939        C940   1.397       .  A
C939        S943   1.802       .  S
C940        H944   1.084       .  S
S941        H946   1.407       .  S
S943        H947   1.407       .  S
C949        C950   1.400       .  A
C949        C954   1.394       .  A
C949        H959   1.084       .  S
C950        C951   1.413       .  A
C950        C955   1.479       .  S
C951        C952   1.399       .  A
C951        S956   1.804       .  S
C952        C953   1.403       .  A
C952        H957   1.083       .  S
C953        C954   1.415       .  A
C954        S958   1.806       .  S
C955        C960   1.410       .  A
C955        C964   1.405       .  A
S956        H972   1.406       .  S
S958        H969   1.404       .  S
C960        C961   1.399       .  A
C960        S965   1.807       .  S
C961        C962   1.402       .  A
C961        H966   1.084       .  S
C962        C963   1.408       .  A
C963        C964   1.397       .  A
C963        S967   1.802       .  S
C964        H968   1.084       .  S
S965        H970   1.407       .  S
S967        H971   1.407       .  S
C973        C974   1.401   1_556  A
C973        C978   1.399       .  A
C973        H983   1.084       .  S
C974        C975   1.415       .  A
C974        C979   1.489       .  S
C975        C976   1.402       .  A
C975        S980   1.803       .  S
C976        C977   1.406       .  A
C976        H981   1.084       .  S
C977        C978   1.420   1_554  A
C978        S982   1.800       .  S
C979        C984   1.414   1_554  A
C979        C988   1.404       .  A
S980        H996   1.406       .  S
S982        H993   1.408       .  S
C984        C985   1.403   1_556  A
C984        S989   1.807       .  S
C985        C986   1.402       .  A
C985        H990   1.082   1_554  S
C986        C987   1.412       .  A
C987        C988   1.400       .  A
C987        S991   1.804       .  S
C988        H992   1.084       .  S
S989        H994   1.407       .  S
S991        H995   1.405       .  S
C997        C998   1.400   1_554  A
C997       C1002   1.396       .  A
C997       H1007   1.084       .  S
C998        C999   1.415       .  A
C998       C1003   1.476       .  S
C999       C1000   1.399       .  A
C999       S1004   1.805       .  S
C1000      C1001   1.402       .  A
C1000      H1005   1.084       .  S
C1001      C1002   1.414   1_556  A
C1002      S1006   1.805       .  S
C1003      C1008   1.411       .  A
C1003      C1012   1.399   1_556  A
S1004      H1020   1.404       .  S
S1006      H1017   1.407       .  S
C1008      C1009   1.407       .  A
C1008      S1013   1.806       .  S
C1009      C1010   1.404       .  A
C1009      H1014   1.083       .  S
C1010      C1011   1.412   1_556  A
C1011      C1012   1.393       .  A
C1011      S1015   1.804       .  S
C1012      H1016   1.084       .  S
S1013      H1018   1.407       .  S
S1015      H1019   1.406       .  S
C1021      C1022   1.404       .  A
C1021      C1026   1.398   1_556  A
C1021      H1031   1.084   1_556  S
C1022      C1023   1.407       .  A
C1022      C1027   1.469       .  S
C1023      C1024   1.393       .  A
C1023      S1028   1.807       .  S
C1024      C1025   1.409       .  A
C1024      H1029   1.084       .  S
C1025      C1026   1.412   1_556  A
C1026      S1030   1.803       .  S
C1027      C1032   1.407       .  A
C1027      C1036   1.400   1_556  A
S1028      H1044   1.405       .  S
S1030      H1041   1.407       .  S
C1032      C1033   1.398       .  A
C1032      S1037   1.807       .  S
C1033      C1034   1.403       .  A
C1033      H1038   1.083       .  S
C1034      C1035   1.411   1_556  A
C1035      C1036   1.395       .  A
C1035      S1039   1.797       .  S
C1036      H1040   1.084       .  S
S1037      H1042   1.407       .  S
S1039      H1043   1.407       .  S
C1045      C1046   1.404   1_554  A
C1045      C1050   1.401       .  A
C1045      H1055   1.084       .  S
C1046      C1047   1.410       .  A
C1046      C1051   1.479       .  S
C1047      C1048   1.397       .  A
C1047      S1052   1.805       .  S
C1048      C1049   1.406       .  A
C1048      H1053   1.084       .  S
C1049      C1050   1.414   1_556  A
C1050      S1054   1.804       .  S
C1051      C1056   1.407       .  A
C1051      C1060   1.403   1_556  A
S1052      H1068   1.405       .  S
S1054      H1065   1.404       .  S
C1056      C1057   1.400       .  A
C1056      S1061   1.807       .  S
C1057      C1058   1.405       .  A
C1057      H1062   1.083       .  S
C1058      C1059   1.413   1_556  A
C1059      C1060   1.402       .  A
C1059      S1063   1.803       .  S
C1060      H1064   1.084       .  S
S1061      H1066   1.407       .  S
S1063      H1067   1.405       .  S
C1069      C1070   1.403       .  A
C1069      C1074   1.407       .  A
C1069      H1079   1.083       .  S
C1070      C1071   1.412       .  A
C1070      C1075   1.485       .  S
C1071      C1072   1.401       .  A
C1071      S1076   1.808       .  S
C1072      C1073   1.406       .  A
C1072      H1077   1.079       .  S
C1073      C1074   1.420       .  A
C1074      S1078   1.809       .  S
C1075      C1080   1.409       .  A
C1075      C1084   1.401       .  A
S1076      H1092   1.403       .  S
S1078      H1089   1.407       .  S
C1080      C1081   1.406       .  A
C1080      S1085   1.805       .  S
C1081      C1082   1.406       .  A
C1081      H1086   1.082       .  S
C1082      C1083   1.417       .  A
C1083      C1084   1.401       .  A
C1083      S1087   1.800       .  S
C1084      H1088   1.084       .  S
S1085      H1090   1.407       .  S
S1087      H1091   1.397       .  S
C1093      C1094   1.403       .  A
C1093      C1098   1.402       .  A
C1093      H1103   1.084       .  S
C1094      C1095   1.413       .  A
C1094      C1099   1.485       .  S
C1095      C1096   1.401       .  A
C1095      S1100   1.804       .  S
C1096      C1097   1.403       .  A
C1096      H1101   1.083       .  S
C1097      C1098   1.414       .  A
C1098      S1102   1.801       .  S
C1099      C1104   1.409       .  A
C1099      C1108   1.402       .  A
S1100      H1116   1.405       .  S
S1102      H1113   1.406       .  S
C1104      C1105   1.404       .  A
C1104      S1109   1.806       .  S
C1105      C1106   1.406       .  A
C1105      H1110   1.083       .  S
C1106      C1107   1.417       .  A
C1107      C1108   1.405       .  A
C1107      S1111   1.810       .  S
C1108      H1112   1.083       .  S
S1109      H1114   1.407       .  S
S1111      H1115   1.407       .  S
C1117      C1118   1.403       .  A
C1117      C1122   1.405       .  A
C1117      H1127   1.084       .  S
C1118      C1119   1.412       .  A
C1118      C1123   1.488       .  S
C1119      C1120   1.402       .  A
C1119      S1124   1.805       .  S
C1120      C1121   1.407       .  A
C1120      H1125   1.084       .  S
C1121      C1122   1.420       .  A
C1122      S1126   1.804       .  S
C1123      C1128   1.408       .  A
C1123      C1132   1.404       .  A
S1124      H1140   1.405       .  S
S1126      H1137   1.407       .  S
C1128      C1129   1.404       .  A
C1128      S1133   1.806       .  S
C1129      C1130   1.405       .  A
C1129      H1134   1.080       .  S
C1130      C1131   1.416       .  A
C1131      C1132   1.405       .  A
C1131      S1135   1.805       .  S
C1132      H1136   1.084       .  S
S1133      H1138   1.407       .  S
S1135      H1139   1.400       .  S
C1141      C1142   1.401       .  A
C1141      C1146   1.403       .  A
C1141      H1151   1.084       .  S
C1142      C1143   1.411       .  A
C1142      C1147   1.484       .  S
C1143      C1144   1.402       .  A
C1143      S1148   1.805       .  S
C1144      C1145   1.409       .  A
C1144      H1149   1.082       .  S
C1145      C1146   1.423       .  A
C1146      S1150   1.803       .  S
C1147      C1152   1.410       .  A
C1147      C1156   1.402       .  A
S1148      H1164   1.405       .  S
S1150      H1161   1.407       .  S
C1152      C1153   1.405       .  A
C1152      S1157   1.805       .  S
C1153      C1154   1.404       .  A
C1153      H1158   1.082       .  S
C1154      C1155   1.412       .  A
C1155      C1156   1.402       .  A
C1155      S1159   1.800       .  S
C1156      H1160   1.084       .  S
S1157      H1162   1.407       .  S
S1159      H1163   1.405       .  S
C1165      C1166   1.398       .  A
C1165      C1170   1.391       .  A
C1165      H1175   1.085       .  S
C1166      C1167   1.412   1_545  A
C1166      C1171   1.472   1_545  S
C1167      C1168   1.401       .  A
C1167      S1172   1.805       .  S
C1168      C1169   1.404   1_565  A
C1168      H1173   1.083       .  S
C1169      C1170   1.415       .  A
C1170      S1174   1.806       .  S
C1171      C1176   1.410       .  A
C1171      C1180   1.397   1_565  A
S1172      H1188   1.405       .  S
S1174      H1185   1.403       .  S
C1176      C1177   1.404       .  A
C1176      S1181   1.806       .  S
C1177      C1178   1.402       .  A
C1177      H1182   1.083       .  S
C1178      C1179   1.414   1_565  A
C1179      C1180   1.392       .  A
C1179      S1183   1.803       .  S
C1180      H1184   1.084       .  S
S1181      H1186   1.407       .  S
S1183      H1187   1.403       .  S
C1189      C1190   1.399   1_545  A
C1189      C1194   1.395       .  A
C1189      H1199   1.084       .  S
C1190      C1191   1.414       .  A
C1190      C1195   1.475       .  S
C1191      C1192   1.399       .  A
C1191      S1196   1.805       .  S
C1192      C1193   1.402       .  A
C1192      H1197   1.084       .  S
C1193      C1194   1.415   1_565  A
C1194      S1198   1.805       .  S
C1195      C1200   1.411       .  A
C1195      C1204   1.399   1_565  A
S1196      H1212   1.406       .  S
S1198      H1209   1.407       .  S
C1200      C1201   1.405       .  A
C1200      S1205   1.806       .  S
C1201      C1202   1.403       .  A
C1201      H1206   1.083       .  S
C1202      C1203   1.411   1_565  A
C1203      C1204   1.393       .  A
C1203      S1207   1.805       .  S
C1204      H1208   1.084       .  S
S1205      H1210   1.407       .  S
S1207      H1211   1.404       .  S
C1213      C1214   1.400       .  A
C1213      C1218   1.395       .  A
C1213      H1223   1.084       .  S
C1214      C1215   1.414   1_565  A
C1214      C1219   1.479       .  S
C1215      C1216   1.402       .  A
C1215      S1220   1.804       .  S
C1216      C1217   1.403   1_545  A
C1216      H1221   1.084       .  S
C1217      C1218   1.413       .  A
C1218      S1222   1.805       .  S
C1219      C1224   1.412   1_565  A
C1219      C1228   1.400       .  A
S1220      H1236   1.406       .  S
S1222      H1233   1.407       .  S
C1224      C1225   1.403       .  A
C1224      S1229   1.806       .  S
C1225      C1226   1.403   1_545  A
C1225      H1230   1.083       .  S
C1226      C1227   1.415       .  A
C1227      C1228   1.396       .  A
C1227      S1231   1.805       .  S
C1228      H1232   1.084       .  S
S1229      H1234   1.407       .  S
S1231      H1235   1.406       .  S
C1237      C1238   1.404       .  A
C1237      C1242   1.400       .  A
C1237      H1247   1.084       .  S
C1238      C1239   1.410       .  A
C1238      C1243   1.479       .  S
C1239      C1240   1.398       .  A
C1239      S1244   1.803       .  S
C1240      C1241   1.405       .  A
C1240      H1245   1.084       .  S
C1241      C1242   1.411       .  A
C1242      S1246   1.798       .  S
C1243      C1248   1.410       .  A
C1243      C1252   1.400       .  A
S1244      H1260   1.406       .  S
S1246      H1257   1.405       .  S
C1248      C1249   1.403       .  A
C1248      S1253   1.805       .  S
C1249      C1250   1.403       .  A
C1249      H1254   1.082       .  S
C1250      C1251   1.413       .  A
C1251      C1252   1.395       .  A
C1251      S1255   1.804       .  S
C1252      H1256   1.084       .  S
S1253      H1258   1.408       .  S
S1255      H1259   1.407       .  S
C1261      C1262   1.400       .  A
C1261      C1266   1.394       .  A
C1261      H1271   1.084       .  S
C1262      C1263   1.410       .  A
C1262      C1267   1.468       .  S
C1263      C1264   1.395       .  A
C1263      S1268   1.804       .  S
C1264      C1265   1.400       .  A
C1264      H1269   1.083       .  S
C1265      C1266   1.409       .  A
C1266      S1270   1.798       .  S
C1267      C1272   1.403       .  A
C1267      C1276   1.400       .  A
S1268      H1284   1.406       .  S
S1270      H1281   1.401       .  S
C1272      C1273   1.397       .  A
C1272      S1277   1.807       .  S
C1273      C1274   1.410       .  A
C1273      H1278   1.083       .  S
C1274      C1275   1.416       .  A
C1275      C1276   1.397       .  A
C1275      S1279   1.801       .  S
C1276      H1280   1.084       .  S
S1277      H1282   1.406       .  S
S1279      H1283   1.407       .  S
C1285      C1286   1.403       .  A
C1285      C1290   1.397       .  A
C1285      H1295   1.084       .  S
C1286      C1287   1.407       .  A
C1286      C1291   1.471       .  S
C1287      C1288   1.395       .  A
C1287      S1292   1.805       .  S
C1288      C1289   1.407       .  A
C1288      H1293   1.084       .  S
C1289      C1290   1.413       .  A
C1290      S1294   1.803       .  S
C1291      C1296   1.408       .  A
C1291      C1300   1.400       .  A
S1292      H1308   1.406       .  S
S1294      H1305   1.407       .  S
C1296      C1297   1.399       .  A
C1296      S1301   1.807       .  S
C1297      C1298   1.403       .  A
C1297      H1302   1.083       .  S
C1298      C1299   1.410       .  A
C1299      C1300   1.395       .  A
C1299      S1303   1.797       .  S
C1300      H1304   1.084       .  S
S1301      H1306   1.407       .  S
S1303      H1307   1.407       .  S
C1309      C1310   1.399       .  A
C1309      C1314   1.401       .  A
C1309      H1319   1.083       .  S
C1310      C1311   1.414       .  A
C1310      C1315   1.479       .  S
C1311      C1312   1.401       .  A
C1311      S1316   1.805       .  S
C1312      C1313   1.403       .  A
C1312      H1317   1.084       .  S
C1313      C1314   1.417       .  A
C1314      S1318   1.808       .  S
C1315      C1320   1.411       .  A
C1315      C1324   1.399       .  A
S1316      H1332   1.405       .  S
S1318      H1329   1.407       .  S
C1320      C1321   1.406       .  A
C1320      S1325   1.805       .  S
C1321      C1322   1.403       .  A
C1321      H1326   1.083       .  S
C1322      C1323   1.412       .  A
C1323      C1324   1.395       .  A
C1323      S1327   1.804       .  S
C1324      H1328   1.084       .  S
S1325      H1330   1.407       .  S
S1327      H1331   1.406       .  S
C1333      C1334   1.404       .  A
C1333      C1338   1.404       .  A
C1333      H1343   1.084       .  S
C1334      C1335   1.415   1_545  A
C1334      C1339   1.489       .  S
C1335      C1336   1.402       .  A
C1335      S1340   1.805       .  S
C1336      C1337   1.404   1_565  A
C1336      H1341   1.081       .  S
C1337      C1338   1.414       .  A
C1338      S1342   1.798       .  S
C1339      C1344   1.410   1_545  A
C1339      C1348   1.402       .  A
S1340      H1356   1.404       .  S
S1342      H1353   1.406       .  S
C1344      C1345   1.408       .  A
C1344      S1349   1.806       .  S
C1345      C1346   1.408   1_565  A
C1345      H1350   1.083       .  S
C1346      C1347   1.418       .  A
C1347      C1348   1.403       .  A
C1347      S1351   1.805       .  S
C1348      H1352   1.084       .  S
S1349      H1354   1.406       .  S
S1351      H1355   1.408       .  S
C1357      C1358   1.402       .  A
C1357      C1362   1.402       .  A
C1357      H1367   1.084       .  S
C1358      C1359   1.414   1_565  A
C1358      C1363   1.486       .  S
C1359      C1360   1.403       .  A
C1359      S1364   1.805       .  S
C1360      C1361   1.406   1_545  A
C1360      H1365   1.084       .  S
C1361      C1362   1.418       .  A
C1362      S1366   1.805       .  S
C1363      C1368   1.410   1_565  A
C1363      C1372   1.403       .  A
S1364      H1380   1.405       .  S
S1366      H1377   1.407       .  S
C1368      C1369   1.405       .  A
C1368      S1373   1.806       .  S
C1369      C1370   1.404   1_545  A
C1369      H1374   1.081       .  S
C1370      C1371   1.412       .  A
C1371      C1372   1.401       .  A
C1371      S1375   1.801       .  S
C1372      H1376   1.084       .  S
S1373      H1378   1.407       .  S
S1375      H1379   1.406       .  S
C1381      C1382   1.402   1_545  A
C1381      C1386   1.401       .  A
C1381      H1391   1.084       .  S
C1382      C1383   1.413       .  A
C1382      C1387   1.484       .  S
C1383      C1384   1.402       .  A
C1383      S1388   1.803       .  S
C1384      C1385   1.405       .  A
C1384      H1389   1.083       .  S
C1385      C1386   1.413   1_565  A
C1386      S1390   1.801       .  S
C1387      C1392   1.409       .  A
C1387      C1396   1.400   1_565  A
S1388      H1404   1.406       .  S
S1390      H1401   1.406       .  S
C1392      C1393   1.407       .  A
C1392      S1397   1.806       .  S
C1393      C1394   1.407       .  A
C1393      H1398   1.083       .  S
C1394      C1395   1.419   1_565  A
C1395      C1396   1.400       .  A
C1395      S1399   1.804       .  S
C1396      H1400   1.084       .  S
S1397      H1402   1.407       .  S
S1399      H1403   1.407       .  S
C1405      C1406   1.401       .  A
C1405      C1410   1.396       .  A
C1405      H1415   1.084       .  S
C1406      C1407   1.414   1_565  A
C1406      C1411   1.474       .  S
C1407      C1408   1.398       .  A
C1407      S1412   1.805       .  S
C1408      C1409   1.400   1_545  A
C1408      H1413   1.084       .  S
C1409      C1410   1.414       .  A
C1410      S1414   1.805       .  S
C1411      C1416   1.409   1_565  A
C1411      C1420   1.397       .  A
S1412      H1428   1.405       .  S
S1414      H1425   1.406       .  S
C1416      C1417   1.404   1_545  A
C1416      S1421   1.805       .  S
C1417      C1418   1.405       .  A
C1417      H1422   1.082   1_565  S
C1418      C1419   1.417       .  A
C1419      C1420   1.393       .  A
C1419      S1423   1.807       .  S
C1420      H1424   1.084       .  S
S1421      H1426   1.407       .  S
S1423      H1427   1.401       .  S
C1429      C1430   1.402       .  A
C1429      C1434   1.402       .  A
C1429      H1439   1.084       .  S
C1430      C1431   1.412   1_565  A
C1430      C1435   1.486       .  S
C1431      C1432   1.403       .  A
C1431      S1436   1.803       .  S
C1432      C1433   1.406   1_545  A
C1432      H1437   1.083       .  S
C1433      C1434   1.417       .  A
C1434      S1438   1.800       .  S
C1435      C1440   1.408   1_565  A
C1435      C1444   1.401       .  A
S1436      H1452   1.405       .  S
S1438      H1449   1.399       .  S
C1440      C1441   1.407       .  A
C1440      S1445   1.806       .  S
C1441      C1442   1.409   1_545  A
C1441      H1446   1.083       .  S
C1442      C1443   1.420       .  A
C1443      C1444   1.402       .  A
C1443      S1447   1.804       .  S
C1444      H1448   1.084       .  S
S1445      H1450   1.406       .  S
S1447      H1451   1.407       .  S
C1453      C1454   1.403       .  A
C1453      C1458   1.398       .  A
C1453      H1463   1.084       .  S
C1454      C1455   1.408       .  A
C1454      C1459   1.470       .  S
C1455      C1456   1.395       .  A
C1455      S1460   1.806       .  S
C1456      C1457   1.407       .  A
C1456      H1461   1.084       .  S
C1457      C1458   1.412       .  A
C1458      S1462   1.803       .  S
C1459      C1464   1.404       .  A
C1459      C1468   1.402       .  A
S1460      H1476   1.404       .  S
S1462      H1473   1.407       .  S
C1464      C1465   1.396       .  A
C1464      S1469   1.808       .  S
C1465      C1466   1.405       .  A
C1465      H1470   1.083       .  S
C1466      C1467   1.414       .  A
C1467      C1468   1.400       .  A
C1467      S1471   1.802       .  S
C1468      H1472   1.084       .  S
S1469      H1474   1.406       .  S
S1471      H1475   1.405       .  S
C1477      C1478   1.396       .  A
C1477      C1482   1.395       .  A
C1477      H1487   1.084       .  S
C1478      C1479   1.413       .  A
C1478      C1483   1.473       .  S
C1479      C1480   1.400       .  A
C1479      S1484   1.804       .  S
C1480      C1481   1.403       .  A
C1480      H1485   1.082       .  S
C1481      C1482   1.421       .  A
C1482      S1486   1.803       .  S
C1483      C1488   1.408       .  A
C1483      C1492   1.397       .  A
S1484      H1500   1.404       .  S
S1486      H1497   1.407       .  S
C1488      C1489   1.404       .  A
C1488      S1493   1.805       .  S
C1489      C1490   1.404       .  A
C1489      H1494   1.082       .  S
C1490      C1491   1.417       .  A
C1491      C1492   1.394       .  A
C1491      S1495   1.807       .  S
C1492      H1496   1.084       .  S
S1493      H1498   1.407       .  S
S1495      H1499   1.403       .  S
C1501      C1502   1.398       .  A
C1501      C1506   1.395       .  A
C1501      H1511   1.084       .  S
C1502      C1503   1.415       .  A
C1502      C1507   1.474       .  S
C1503      C1504   1.399       .  A
C1503      S1508   1.805       .  S
C1504      C1505   1.401       .  A
C1504      H1509   1.084       .  S
C1505      C1506   1.418       .  A
C1506      S1510   1.805       .  S
C1507      C1512   1.409       .  A
C1507      C1516   1.399       .  A
S1508      H1524   1.405       .  S
S1510      H1521   1.407       .  S
C1512      C1513   1.404       .  A
C1512      S1517   1.806       .  S
C1513      C1514   1.403       .  A
C1513      H1518   1.083       .  S
C1514      C1515   1.410       .  A
C1515      C1516   1.394       .  A
C1515      S1519   1.804       .  S
C1516      H1520   1.084       .  S
S1517      H1522   1.407       .  S
S1519      H1523   1.406       .  S
C1525      C1526   1.399       .  A
C1525      C1530   1.394       .  A
C1525      H1535   1.084       .  S
C1526      C1527   1.413       .  A
C1526      C1531   1.477       .  S
C1527      C1528   1.402       .  A
C1527      S1532   1.804       .  S
C1528      C1529   1.403       .  A
C1528      H1533   1.082       .  S
C1529      C1530   1.413       .  A
C1530      S1534   1.804       .  S
C1531      C1536   1.412       .  A
C1531      C1540   1.398       .  A
S1532      H1548   1.406       .  S
S1534      H1545   1.403       .  S
C1536      C1537   1.404       .  A
C1536      S1541   1.806       .  S
C1537      C1538   1.402       .  A
C1537      H1542   1.081       .  S
C1538      C1539   1.417       .  A
C1539      C1540   1.395       .  A
C1539      S1543   1.804       .  S
C1540      H1544   1.084       .  S
S1541      H1546   1.407       .  S
S1543      H1547   1.407       .  S
C1549      C1550   1.405   1_545  A
C1549      C1554   1.400       .  A
C1549      H1559   1.084       .  S
C1550      C1551   1.411       .  A
C1550      C1555   1.480       .  S
C1551      C1552   1.399       .  A
C1551      S1556   1.806       .  S
C1552      C1553   1.407       .  A
C1552      H1557   1.084       .  S
C1553      C1554   1.411   1_565  A
C1554      S1558   1.801       .  S
C1555      C1560   1.408       .  A
C1555      C1564   1.403   1_565  A
S1556      H1572   1.404       .  S
S1558      H1569   1.407       .  S
C1560      C1561   1.400       .  A
C1560      S1565   1.806       .  S
C1561      C1562   1.405       .  A
C1561      H1566   1.083       .  S
C1562      C1563   1.414   1_565  A
C1563      C1564   1.400       .  A
C1563      S1567   1.803       .  S
C1564      H1568   1.084       .  S
S1565      H1570   1.407       .  S
S1567      H1571   1.404       .  S
C1573      C1574   1.403   1_565  A
C1573      C1578   1.401       .  A
C1573      H1583   1.084       .  S
C1574      C1575   1.408       .  A
C1574      C1579   1.474       .  S
C1575      C1576   1.394       .  A
C1575      S1580   1.805       .  S
C1576      C1577   1.404   1_545  A
C1576      H1581   1.084       .  S
C1577      C1578   1.414       .  A
C1578      S1582   1.803       .  S
C1579      C1584   1.403       .  A
C1579      C1588   1.402   1_545  A
S1580      H1596   1.403       .  S
S1582      H1593   1.404       .  S
C1584      C1585   1.400       .  A
C1584      S1589   1.806       .  S
C1585      C1586   1.411   1_545  A
C1585      H1590   1.083       .  S
C1586      C1587   1.414       .  A
C1587      C1588   1.399       .  A
C1587      S1591   1.803       .  S
C1588      H1592   1.084       .  S
S1589      H1594   1.407       .  S
S1591      H1595   1.408       .  S
C1597      C1598   1.396       .  A
C1597      C1602   1.393       .  A
C1597      H1607   1.084       .  S
C1598      C1599   1.415   1_565  A
C1598      C1603   1.474       .  S
C1599      C1600   1.399       .  A
C1599      S1604   1.804       .  S
C1600      C1601   1.401   1_545  A
C1600      H1605   1.083       .  S
C1601      C1602   1.417       .  A
C1602      S1606   1.801       .  S
C1603      C1608   1.410   1_565  A
C1603      C1612   1.399       .  A
S1604      H1620   1.406       .  S
S1606      H1617   1.404       .  S
C1608      C1609   1.403       .  A
C1608      S1613   1.806       .  S
C1609      C1610   1.402   1_545  A
C1609      H1614   1.083       .  S
C1610      C1611   1.412       .  A
C1611      C1612   1.394       .  A
C1611      S1615   1.806       .  S
C1612      H1616   1.084       .  S
S1613      H1618   1.406       .  S
S1615      H1619   1.404       .  S
C1621      C1622   1.402   1_565  A
C1621      C1626   1.397       .  A
C1621      H1631   1.084       .  S
C1622      C1623   1.409       .  A
C1622      C1627   1.474       .  S
C1623      C1624   1.400       .  A
C1623      S1628   1.805       .  S
C1624      C1625   1.408   1_545  A
C1624      H1629   1.084       .  S
C1625      C1626   1.414       .  A
C1626      S1630   1.804       .  S
C1627      C1632   1.407       .  A
C1627      C1636   1.401   1_545  A
S1628      H1644   1.405       .  S
S1630      H1641   1.407       .  S
C1632      C1633   1.401       .  A
C1632      S1637   1.805       .  S
C1633      C1634   1.404   1_545  A
C1633      H1638   1.083       .  S
C1634      C1635   1.411       .  A
C1635      C1636   1.396       .  A
C1635      S1639   1.798       .  S
C1636      H1640   1.084       .  S
S1637      H1642   1.407       .  S
S1639      H1643   1.406       .  S
C1645      C1646   1.403       .  A
C1645      C1650   1.404       .  A
C1645      H1655   1.084       .  S
C1646      C1647   1.413       .  A
C1646      C1651   1.487       .  S
C1647      C1648   1.403       .  A
C1647      S1652   1.806       .  S
C1648      C1649   1.406       .  A
C1648      H1653   1.084       .  S
C1649      C1650   1.418       .  A
C1650      S1654   1.806       .  S
C1651      C1656   1.409       .  A
C1651      C1660   1.402       .  A
S1652      H1668   1.404       .  S
S1654      H1665   1.404       .  S
C1656      C1657   1.405       .  A
C1656      S1661   1.805       .  S
C1657      C1658   1.407       .  A
C1657      H1662   1.082       .  S
C1658      C1659   1.418       .  A
C1659      C1660   1.402       .  A
C1659      S1663   1.803       .  S
C1660      H1664   1.084       .  S
S1661      H1666   1.407       .  S
S1663      H1667   1.402       .  S
C1669      C1670   1.402       .  A
C1669      C1674   1.402       .  A
C1669      H1679   1.084       .  S
C1670      C1671   1.414       .  A
C1670      C1675   1.486       .  S
C1671      C1672   1.404       .  A
C1671      S1676   1.805       .  S
C1672      C1673   1.407       .  A
C1672      H1677   1.084       .  S
C1673      C1674   1.417       .  A
C1674      S1678   1.804       .  S
C1675      C1680   1.409       .  A
C1675      C1684   1.402       .  A
S1676      H1692   1.405       .  S
S1678      H1689   1.407       .  S
C1680      C1681   1.405       .  A
C1680      S1685   1.806       .  S
C1681      C1682   1.407       .  A
C1681      H1686   1.082       .  S
C1682      C1683   1.415       .  A
C1683      C1684   1.401       .  A
C1683      S1687   1.801       .  S
C1684      H1688   1.084       .  S
S1685      H1690   1.407       .  S
S1687      H1691   1.400       .  S
C1693      C1694   1.402       .  A
C1693      C1698   1.400       .  A
C1693      H1703   1.084       .  S
C1694      C1695   1.411       .  A
C1694      C1699   1.480       .  S
C1695      C1696   1.400       .  A
C1695      S1700   1.806       .  S
C1696      C1697   1.407       .  A
C1696      H1701   1.083       .  S
C1697      C1698   1.416       .  A
C1698      S1702   1.804       .  S
C1699      C1704   1.410       .  A
C1699      C1708   1.402       .  A
S1700      H1716   1.405       .  S
S1702      H1713   1.407       .  S
C1704      C1705   1.403       .  A
C1704      S1709   1.807       .  S
C1705      C1706   1.404       .  A
C1705      H1710   1.082       .  S
C1706      C1707   1.411       .  A
C1707      C1708   1.399       .  A
C1707      S1711   1.801       .  S
C1708      H1712   1.084       .  S
S1709      H1714   1.407       .  S
S1711      H1715   1.405       .  S
C1717      C1718   1.404       .  A
C1717      C1722   1.404       .  A
C1717      H1727   1.083       .  S
C1718      C1719   1.414       .  A
C1718      C1723   1.490       .  S
C1719      C1720   1.402       .  A
C1719      S1724   1.803       .  S
C1720      C1721   1.403       .  A
C1720      H1725   1.082       .  S
C1721      C1722   1.410       .  A
C1722      S1726   1.801       .  S
C1723      C1728   1.411       .  A
C1723      C1732   1.405       .  A
S1724      H1740   1.406       .  S
S1726      H1737   1.406       .  S
C1728      C1729   1.403       .  A
C1728      S1733   1.805       .  S
C1729      C1730   1.403       .  A
C1729      H1734   1.083       .  S
C1730      C1731   1.414       .  A
C1731      C1732   1.407       .  A
C1731      S1735   1.809       .  S
C1732      H1736   1.083       .  S
S1733      H1738   1.406       .  S
S1735      H1739   1.406       .  S
C1741      C1742   1.405   1_655  A
C1741      C1746   1.402       .  A
C1741      H1751   1.084       .  S
C1742      C1743   1.409       .  A
C1742      C1747   1.476       .  S
C1743      C1744   1.393       .  A
C1743      S1748   1.806       .  S
C1744      C1745   1.407       .  A
C1744      H1749   1.084       .  S
C1745      C1746   1.413   1_455  A
C1746      S1750   1.803       .  S
C1747      C1752   1.408       .  A
C1747      C1756   1.402   1_455  A
S1748      H1764   1.406       .  S
S1750      H1761   1.405       .  S
C1752      C1753   1.398       .  A
C1752      S1757   1.807       .  S
C1753      C1754   1.403       .  A
C1753      H1758   1.083       .  S
C1754      C1755   1.413   1_455  A
C1755      C1756   1.400       .  A
C1755      S1759   1.804       .  S
C1756      H1760   1.084       .  S
S1757      H1762   1.407       .  S
S1759      H1763   1.405       .  S
C1765      C1766   1.404       .  A
C1765      C1770   1.398       .  A
C1765      H1775   1.084       .  S
C1766      C1767   1.409   1_455  A
C1766      C1771   1.474       .  S
C1767      C1768   1.394       .  A
C1767      S1772   1.805       .  S
C1768      C1769   1.407       .  A
C1768      H1773   1.084       .  S
C1769      C1770   1.412   1_655  A
C1770      S1774   1.800       .  S
C1771      C1776   1.409   1_455  A
C1771      C1780   1.401       .  A
S1772      H1788   1.405       .  S
S1774      H1785   1.407       .  S
C1776      C1777   1.401       .  A
C1776      S1781   1.808       .  S
C1777      C1778   1.402   1_655  A
C1777      H1782   1.083       .  S
C1778      C1779   1.409       .  A
C1779      C1780   1.396       .  A
C1779      S1783   1.797       .  S
C1780      H1784   1.084       .  S
S1781      H1786   1.406       .  S
S1783      H1787   1.401       .  S
C1789      C1790   1.404   1_455  A
C1789      C1794   1.400       .  A
C1789      H1799   1.084       .  S
C1790      C1791   1.411       .  A
C1790      C1795   1.478       .  S
C1791      C1792   1.394       .  A
C1791      S1796   1.805       .  S
C1792      C1793   1.404       .  A
C1792      H1797   1.084       .  S
C1793      C1794   1.413   1_655  A
C1794      S1798   1.802       .  S
C1795      C1800   1.413   1_655  A
C1795      C1804   1.400       .  A
S1796      H1812   1.406       .  S
S1798      H1809   1.405       .  S
C1800      C1801   1.403       .  A
C1800      S1805   1.807       .  S
C1801      C1802   1.401   1_455  A
C1801      H1806   1.081       .  S
C1802      C1803   1.410       .  A
C1803      C1804   1.394       .  A
C1803      S1807   1.801       .  S
C1804      H1808   1.084       .  S
S1805      H1810   1.407       .  S
S1807      H1811   1.407       .  S
C1813      C1814   1.404   1_655  A
C1813      C1818   1.398       .  A
C1813      H1823   1.084       .  S
C1814      C1815   1.412       .  A
C1814      C1819   1.478       .  S
C1815      C1816   1.397       .  A
C1815      S1820   1.804       .  S
C1816      C1817   1.402   1_455  A
C1816      H1821   1.084       .  S
C1817      C1818   1.409       .  A
C1818      S1822   1.801       .  S
C1819      C1824   1.412   1_455  A
C1819      C1828   1.399       .  A
S1820      H1836   1.406       .  S
S1822      H1833   1.405       .  S
C1824      C1825   1.402       .  A
C1824      S1829   1.808       .  S
C1825      C1826   1.402   1_655  A
C1825      H1830   1.081       .  S
C1826      C1827   1.417       .  A
C1827      C1828   1.397       .  A
C1827      S1831   1.804       .  S
C1828      H1832   1.084       .  S
S1829      H1834   1.406       .  S
S1831      H1835   1.408       .  S
C1837      C1838   1.399   1_655  A
C1837      C1842   1.394       .  A
C1837      H1847   1.084       .  S
C1838      C1839   1.410       .  A
C1838      C1843   1.473       .  S
C1839      C1840   1.400       .  A
C1839      S1844   1.803       .  S
C1840      C1841   1.404   1_455  A
C1840      H1845   1.084       .  S
C1841      C1842   1.414       .  A
C1842      S1846   1.807       .  S
C1843      C1848   1.410       .  A
C1843      C1852   1.397   1_455  A
S1844      H1860   1.406       .  S
S1846      H1857   1.400       .  S
C1848      C1849   1.403       .  A
C1848      S1853   1.806       .  S
C1849      C1850   1.404       .  A
C1849      H1854   1.083       .  S
C1850      C1851   1.417   1_455  A
C1851      C1852   1.395       .  A
C1851      S1855   1.802       .  S
C1852      H1856   1.084       .  S
S1853      H1858   1.407       .  S
S1855      H1859   1.407       .  S
C1861      C1862   1.400       .  A
C1861      C1866   1.395       .  A
C1861      H1871   1.084       .  S
C1862      C1863   1.412   1_455  A
C1862      C1867   1.473       .  S
C1863      C1864   1.399       .  A
C1863      S1868   1.804       .  S
C1864      C1865   1.402   1_655  A
C1864      H1869   1.082       .  S
C1865      C1866   1.411       .  A
C1866      S1870   1.804       .  S
C1867      C1872   1.411   1_455  A
C1867      C1876   1.398       .  A
S1868      H1884   1.405       .  S
S1870      H1881   1.407       .  S
C1872      C1873   1.401       .  A
C1872      S1877   1.806       .  S
C1873      C1874   1.401   1_655  A
C1873      H1878   1.083       .  S
C1874      C1875   1.417       .  A
C1875      C1876   1.395       .  A
C1875      S1879   1.804       .  S
C1876      H1880   1.084       .  S
S1877      H1882   1.407       .  S
S1879      H1883   1.407       .  S
C1885      C1886   1.404       .  A
C1885      C1890   1.399       .  A
C1885      H1895   1.084       .  S
C1886      C1887   1.408       .  A
C1886      C1891   1.472       .  S
C1887      C1888   1.394       .  A
C1887      S1892   1.806       .  S
C1888      C1889   1.407       .  A
C1888      H1893   1.084       .  S
C1889      C1890   1.411       .  A
C1890      S1894   1.804       .  S
C1891      C1896   1.407       .  A
C1891      C1900   1.402       .  A
S1892      H1908   1.405       .  S
S1894      H1905   1.406       .  S
C1896      C1897   1.398       .  A
C1896      S1901   1.807       .  S
C1897      C1898   1.403       .  A
C1897      H1902   1.083       .  S
C1898      C1899   1.411       .  A
C1899      C1900   1.398       .  A
C1899      S1903   1.799       .  S
C1900      H1904   1.084       .  S
S1901      H1906   1.407       .  S
S1903      H1907   1.406       .  S
C1909      C1910   1.403       .  A
C1909      C1914   1.400       .  A
C1909      H1919   1.084       .  S
C1910      C1911   1.408       .  A
C1910      C1915   1.475       .  S
C1911      C1912   1.397       .  A
C1911      S1916   1.804       .  S
C1912      C1913   1.408       .  A
C1912      H1917   1.084       .  S
C1913      C1914   1.414       .  A
C1914      S1918   1.803       .  S
C1915      C1920   1.407       .  A
C1915      C1924   1.401       .  A
S1916      H1932   1.406       .  S
S1918      H1929   1.408       .  S
C1920      C1921   1.400       .  A
C1920      S1925   1.806       .  S
C1921      C1922   1.404       .  A
C1921      H1926   1.083       .  S
C1922      C1923   1.414       .  A
C1923      C1924   1.399       .  A
C1923      S1927   1.804       .  S
C1924      H1928   1.084       .  S
S1925      H1930   1.407       .  S
S1927      H1931   1.404       .  S
C1933      C1934   1.404       .  A
C1933      C1938   1.400       .  A
C1933      H1943   1.084       .  S
C1934      C1935   1.410       .  A
C1934      C1939   1.476       .  S
C1935      C1936   1.396       .  A
C1935      S1940   1.805       .  S
C1936      C1937   1.406       .  A
C1936      H1941   1.084       .  S
C1937      C1938   1.412       .  A
C1938      S1942   1.801       .  S
C1939      C1944   1.410       .  A
C1939      C1948   1.398       .  A
S1940      H1956   1.405       .  S
S1942      H1953   1.406       .  S
C1944      C1945   1.404       .  A
C1944      S1949   1.806       .  S
C1945      C1946   1.402       .  A
C1945      H1950   1.083       .  S
C1946      C1947   1.416       .  A
C1947      C1948   1.393       .  A
C1947      S1951   1.808       .  S
C1948      H1952   1.084       .  S
S1949      H1954   1.407       .  S
S1951      H1955   1.402       .  S
C1957      C1958   1.403       .  A
C1957      C1962   1.397       .  A
C1957      H1967   1.084       .  S
C1958      C1959   1.407       .  A
C1958      C1963   1.472       .  S
C1959      C1960   1.395       .  A
C1959      S1964   1.804       .  S
C1960      C1961   1.408       .  A
C1960      H1965   1.084       .  S
C1961      C1962   1.413       .  A
C1962      S1966   1.803       .  S
C1963      C1968   1.408       .  A
C1963      C1972   1.401       .  A
S1964      H1980   1.406       .  S
S1966      H1977   1.407       .  S
C1968      C1969   1.398       .  A
C1968      S1973   1.807       .  S
C1969      C1970   1.402       .  A
C1969      H1974   1.083       .  S
C1970      C1971   1.410       .  A
C1971      C1972   1.397       .  A
C1971      S1975   1.800       .  S
C1972      H1976   1.084       .  S
S1973      H1978   1.407       .  S
S1975      H1979   1.405       .  S
C1981      C1982   1.396       .  A
C1981      C1986   1.395       .  A
C1981      H1991   1.084       .  S
C1982      C1983   1.414       .  A
C1982      C1987   1.473       .  S
C1983      C1984   1.400       .  A
C1983      S1988   1.805       .  S
C1984      C1985   1.402       .  A
C1984      H1989   1.082       .  S
C1985      C1986   1.418       .  A
C1986      S1990   1.800       .  S
C1987      C1992   1.408       .  A
C1987      C1996   1.397       .  A
S1988      H2004   1.404       .  S
S1990      H2001   1.403       .  S
C1992      C1993   1.404       .  A
C1992      S1997   1.805       .  S
C1993      C1994   1.404       .  A
C1993      H1998   1.083       .  S
C1994      C1995   1.415       .  A
C1995      C1996   1.394       .  A
C1995      S1999   1.807       .  S
C1996      H2000   1.084       .  S
S1997      H2002   1.407       .  S
S1999      H2003   1.402       .  S
C2005      C2006   1.402       .  A
C2005      C2010   1.398       .  A
C2005      H2015   1.084       .  S
C2006      C2007   1.408       .  A
C2006      C2011   1.470       .  S
C2007      C2008   1.394       .  A
C2007      S2012   1.804       .  S
C2008      C2009   1.403       .  A
C2008      H2013   1.084       .  S
C2009      C2010   1.410       .  A
C2010      S2014   1.798       .  S
C2011      C2016   1.402       .  A
C2011      C2020   1.400       .  A
S2012      H2028   1.405       .  S
S2014      H2025   1.406       .  S
C2016      C2017   1.399       .  A
C2016      S2021   1.807       .  S
C2017      C2018   1.413       .  A
C2017      H2022   1.082       .  S
C2018      C2019   1.418       .  A
C2019      C2020   1.398       .  A
C2019      S2023   1.802       .  S
C2020      H2024   1.084       .  S
S2021      H2026   1.406       .  S
S2023      H2027   1.408       .  S
C2029      C2030   1.402       .  A
C2029      C2034   1.398       .  A
C2029      H2039   1.084       .  S
C2030      C2031   1.404       .  A
C2030      C2035   1.472       .  S
C2031      C2032   1.393       .  A
C2031      S2036   1.805       .  S
C2032      C2033   1.414       .  A
C2032      H2037   1.083       .  S
C2033      C2034   1.418       .  A
C2034      S2038   1.801       .  S
C2035      C2040   1.407       .  A
C2035      C2044   1.401       .  A
S2036      H2052   1.406       .  S
S2038      H2049   1.408       .  S
C2040      C2041   1.397       .  A
C2040      S2045   1.808       .  S
C2041      C2042   1.402       .  A
C2041      H2046   1.083       .  S
C2042      C2043   1.413       .  A
C2043      C2044   1.397       .  A
C2043      S2047   1.804       .  S
C2044      H2048   1.084       .  S
S2045      H2050   1.406       .  S
S2047      H2051   1.405       .  S
C2053      C2054   1.398       .  A
C2053      C2058   1.394       .  A
C2053      H2063   1.084       .  S
C2054      C2055   1.411       .  A
C2054      C2059   1.473       .  S
C2055      C2056   1.401       .  A
C2055      S2060   1.804       .  S
C2056      C2057   1.405       .  A
C2056      H2061   1.083       .  S
C2057      C2058   1.416       .  A
C2058      S2062   1.807       .  S
C2059      C2064   1.409       .  A
C2059      C2068   1.397       .  A
S2060      H2076   1.405       .  S
S2062      H2073   1.401       .  S
C2064      C2065   1.403       .  A
C2064      S2069   1.806       .  S
C2065      C2066   1.403       .  A
C2065      H2070   1.083       .  S
C2066      C2067   1.417       .  A
C2067      C2068   1.395       .  A
C2067      S2071   1.803       .  S
C2068      H2072   1.084       .  S
S2069      H2074   1.407       .  S
S2071      H2075   1.407       .  S
C2077      C2078   1.403       .  A
C2077      C2082   1.402       .  A
C2077      H2087   1.084       .  S
C2078      C2079   1.414   1_455  A
C2078      C2083   1.487       .  S
C2079      C2080   1.403       .  A
C2079      S2084   1.807       .  S
C2080      C2081   1.407   1_655  A
C2080      H2085   1.084       .  S
C2081      C2082   1.417       .  A
C2082      S2086   1.806       .  S
C2083      C2088   1.410   1_455  A
C2083      C2092   1.402       .  A
S2084      H2100   1.403       .  S
S2086      H2097   1.403       .  S
C2088      C2089   1.406       .  A
C2088      S2093   1.805       .  S
C2089      C2090   1.405   1_655  A
C2089      H2094   1.082       .  S
C2090      C2091   1.416       .  A
C2091      C2092   1.401       .  A
C2091      S2095   1.804       .  S
C2092      H2096   1.084       .  S
S2093      H2098   1.407       .  S
S2095      H2099   1.404       .  S
C2101      C2102   1.402   1_455  A
C2101      C2106   1.404       .  A
C2101      H2111   1.084       .  S
C2102      C2103   1.412       .  A
C2102      C2107   1.487       .  S
C2103      C2104   1.402       .  A
C2103      S2108   1.804       .  S
C2104      C2105   1.407   1_655  A
C2104      H2109   1.084       .  S
C2105      C2106   1.420       .  A
C2106      S2110   1.801       .  S
C2107      C2112   1.410   1_655  A
C2107      C2116   1.403       .  A
S2108      H2124   1.405       .  S
S2110      H2121   1.407       .  S
C2112      C2113   1.405       .  A
C2112      S2117   1.805       .  S
C2113      C2114   1.405   1_455  A
C2113      H2118   1.082       .  S
C2114      C2115   1.415       .  A
C2115      C2116   1.403       .  A
C2115      S2119   1.802       .  S
C2116      H2120   1.084       .  S
S2117      H2122   1.407       .  S
S2119      H2123   1.402       .  S
C2125      C2126   1.401   1_655  A
C2125      C2130   1.399       .  A
C2125      H2135   1.084       .  S
C2126      C2127   1.412       .  A
C2126      C2131   1.482       .  S
C2127      C2128   1.401       .  A
C2127      S2132   1.805       .  S
C2128      C2129   1.409       .  A
C2128      H2133   1.084       .  S
C2129      C2130   1.417   1_455  A
C2130      S2134   1.801       .  S
C2131      C2136   1.411       .  A
C2131      C2140   1.401   1_455  A
S2132      H2148   1.406       .  S
S2134      H2145   1.408       .  S
C2136      C2137   1.405       .  A
C2136      S2141   1.806       .  S
C2137      C2138   1.403       .  A
C2137      H2142   1.082       .  S
C2138      C2139   1.411   1_455  A
C2139      C2140   1.397       .  A
C2139      S2143   1.799       .  S
C2140      H2144   1.084       .  S
S2141      H2146   1.407       .  S
S2143      H2147   1.404       .  S
C2149      C2150   1.401       .  A
C2149      C2154   1.397       .  A
C2149      H2159   1.084       .  S
C2150      C2151   1.415   1_655  A
C2150      C2155   1.476       .  S
C2151      C2152   1.397       .  A
C2151      S2156   1.805       .  S
C2152      C2153   1.401   1_455  A
C2152      H2157   1.084       .  S
C2153      C2154   1.416       .  A
C2154      S2158   1.806       .  S
C2155      C2160   1.410   1_655  A
C2155      C2164   1.399       .  A
S2156      H2172   1.405       .  S
S2158      H2169   1.405       .  S
C2160      C2161   1.404       .  A
C2160      S2165   1.806       .  S
C2161      C2162   1.403   1_455  A
C2161      H2166   1.081       .  S
C2162      C2163   1.413       .  A
C2163      C2164   1.392       .  A
C2163      S2167   1.806       .  S
C2164      H2168   1.084       .  S
S2165      H2170   1.407       .  S
S2167      H2171   1.402       .  S
C2173      C2174   1.404   1_455  A
C2173      C2178   1.400       .  A
C2173      H2183   1.084       .  S
C2174      C2175   1.409       .  A
C2174      C2179   1.475       .  S
C2175      C2176   1.396       .  A
C2175      S2180   1.804       .  S
C2176      C2177   1.405       .  A
C2176      H2181   1.084       .  S
C2177      C2178   1.412   1_655  A
C2178      S2182   1.803       .  S
C2179      C2184   1.409   1_655  A
C2179      C2188   1.398       .  A
S2180      H2196   1.405       .  S
S2182      H2193   1.407       .  S
C2184      C2185   1.403       .  A
C2184      S2189   1.805       .  S
C2185      C2186   1.402   1_455  A
C2185      H2190   1.082       .  S
C2186      C2187   1.416       .  A
C2187      C2188   1.395       .  A
C2187      S2191   1.806       .  S
C2188      H2192   1.084       .  S
S2189      H2194   1.407       .  S
S2191      H2195   1.403       .  S
C2197      C2198   1.405       .  A
C2197      C2202   1.405       .  A
C2197      H2207   1.083       .  S
C2198      C2199   1.415   1_655  A
C2198      C2203   1.489       .  S
C2199      C2200   1.402       .  A
C2199      S2204   1.804       .  S
C2200      C2201   1.402   1_455  A
C2200      H2205   1.083       .  S
C2201      C2202   1.407       .  A
C2202      S2206   1.800       .  S
C2203      C2208   1.411       .  A
C2203      C2212   1.403   1_655  A
S2204      H2220   1.406       .  S
S2206      H2217   1.406       .  S
C2208      C2209   1.404       .  A
C2208      S2213   1.807       .  S
C2209      C2210   1.407       .  A
C2209      H2214   1.083       .  S
C2210      C2211   1.418   1_655  A
C2211      C2212   1.402       .  A
C2211      S2215   1.804       .  S
C2212      H2216   1.084       .  S
S2213      H2218   1.407       .  S
S2215      H2219   1.407       .  S
