geometry optimzed in LAMMPS
_audit_creation_date              2020-11-30 
_audit_creation_method            'lammps2cif' 
_symmetry_space_group_name_H-M    'P1' 
_symmetry_Int_Tables_number       1 
_symmetry_cell_setting            triclinic 
loop_ 
_symmetry_equiv_pos_as_xyz 
  x,y,z 
_cell_length_a                    48.34268629 
_cell_length_b                    25.22423057403874 
_cell_length_c                    25.61495810421846 
_cell_angle_alpha                 90.29614096108098 
_cell_angle_beta                  89.79754933594567 
_cell_angle_gamma                 89.42198927737176 
loop_ 
_atom_site_label 
_atom_site_type_symbol 
_atom_site_fract_x 
_atom_site_fract_y 
_atom_site_fract_z 
_atom_site_charge 
N1          N  0.16100664  0.42240425  0.03800948    -0.06300
N2          N  0.18145314  0.39286759  0.05821278    -0.58400
N3          N  0.13808186  0.40646064  0.91795596    -0.06000
N4          N  0.14341394  0.36483552  0.88842390    -0.60500
N5          N  0.16006284  0.43683337  0.92214056    -0.05600
N6          N  0.18106624  0.41380597  0.89662967    -0.58400
N7          N  0.13855037  0.39314148  0.03575508    -0.05200
N8          N  0.14264464  0.34642516  0.05653705    -0.60900
C9          C  0.16930239  0.34550339  0.07008543     0.95900
C10         C  0.17006004  0.36936528  0.87462502     0.95700
N11         N  0.05478475  0.44938510  0.92332021    -0.06500
N12         N  0.04411220  0.46135672  0.87709874    -0.59000
N13         N  0.07655086  0.39782450  0.04222259    -0.04600
N14         N  0.08134171  0.37331358  0.08714787    -0.60200
N15         N  0.05673699  0.43317835  0.04755806    -0.06500
N16         N  0.04746727  0.43314874  0.09621373    -0.59200
N17         N  0.07444018  0.41376995  0.91767953    -0.04200
N18         N  0.07745009  0.40085641  0.86768854    -0.60300
Mn19       Mn  0.10621731  0.40212686  0.97802392     1.18400
C20         C  0.05844717  0.43091705  0.84253379     0.98000
C21         C  0.06289208  0.39565089  0.12034615     0.98600
N22         N  0.15906318  0.57065265  0.93757531    -0.06500
N23         N  0.17832213  0.59574156  0.91003864    -0.62800
N24         N  0.13766514  0.58413148  0.06366980    -0.05300
N25         N  0.14192574  0.62584368  0.09304917    -0.63500
N26         N  0.16116460  0.55920353  0.05284385    -0.06000
N27         N  0.18192307  0.58910755  0.07003992    -0.63100
N28         N  0.13745314  0.60247503  0.94389466    -0.04900
N29         N  0.14096090  0.64736391  0.91916858    -0.63800
Mn30       Mn  0.16167881  0.49733995  0.98769573     1.10700
C31         C  0.16616250  0.64315058  0.89764743     0.99200
C32         C  0.16937513  0.63084675  0.09529797     0.99300
N33         N  0.05502150  0.55314282  0.06298571    -0.06000
N34         N  0.04267257  0.54851965  0.10902014    -0.61400
N35         N  0.07396884  0.60321011  0.94359287    -0.05300
N36         N  0.07632877  0.62969435  0.89933610    -0.58100
N37         N  0.05383026  0.56895533  0.94034965    -0.06700
N38         N  0.04207370  0.57181060  0.89388456    -0.61000
N39         N  0.07482397  0.58798096  0.06599108    -0.05600
N40         N  0.07643639  0.60792612  0.11362632    -0.58200
Mn41       Mn  0.05362846  0.50060612  0.99364887     1.20200
Mn42       Mn  0.10576272  0.59482626  0.00432870     1.10100
Cl43       Cl  0.10750499  0.49866635  0.99054113    -0.86100
C44         C  0.05597021  0.58372562  0.14000655     0.96200
C45         C  0.05591053  0.61051771  0.86884365     0.96000
N46         N  0.43966151  0.42152339  0.05584369    -0.06300
N47         N  0.44736660  0.42448355  0.10552615    -0.58400
N48         N  0.41998758  0.39164548  0.92843579    -0.06000
N49         N  0.41829823  0.36761573  0.88276846    -0.60500
N50         N  0.43989049  0.42658337  0.92871081    -0.05600
N51         N  0.45209450  0.42721524  0.88214338    -0.58400
N52         N  0.42135617  0.38389222  0.05059078    -0.05200
N53         N  0.41714176  0.35957118  0.09552094    -0.60900
C54         C  0.43355750  0.38474358  0.12959897     0.95900
C55         C  0.43848707  0.38968482  0.85402673     0.95700
N56         N  0.33414231  0.42482537  0.93773879    -0.06500
N57         N  0.31217389  0.40255793  0.91572876    -0.59000
N58         N  0.36055675  0.38830228  0.05385475    -0.04600
N59         N  0.35850170  0.34385829  0.07928369    -0.60200
N60         N  0.33708651  0.41504153  0.05375663    -0.06500
N61         N  0.31776227  0.38464642  0.07548640    -0.59200
N62         N  0.35554869  0.39205609  0.93348456    -0.04200
N63         N  0.34871618  0.34945890  0.90670586    -0.60300
Mn64       Mn  0.38967245  0.38885451  0.99067332     1.18400
C65         C  0.32182899  0.35596752  0.89509799     0.98000
C66         C  0.33183230  0.34005167  0.09132383     0.98600
N67         N  0.44040762  0.54966547  0.93730772    -0.06500
N68         N  0.45224881  0.55168870  0.89069733    -0.62800
N69         N  0.42213636  0.57788822  0.06370390    -0.05300
N70         N  0.42110900  0.59897934  0.11093133    -0.63500
N71         N  0.44184626  0.54206008  0.06087196    -0.07200
N72         N  0.45446582  0.53817191  0.10653220    -0.63100
N73         N  0.42101769  0.58635363  0.94111118    -0.04900
N74         N  0.41950713  0.61423481  0.89756408    -0.63800
Mn75       Mn  0.44215586  0.48469529  0.99533419     1.10700
C76         C  0.43946661  0.59292638  0.86660307     0.99200
C77         C  0.44151818  0.57441528  0.13779322     0.99300
N78         N  0.33656263  0.54893198  0.06352164    -0.06000
N79         N  0.31546899  0.57177985  0.08874769    -0.61400
N80         N  0.35695228  0.59021027  0.94719788    -0.05300
N81         N  0.35146701  0.63811065  0.93011287    -0.58100
N82         N  0.33427977  0.56130772  0.94934006    -0.06700
N83         N  0.31274898  0.59220659  0.93655204    -0.61000
N84         N  0.35822790  0.58037611  0.06553300    -0.05600
N85         N  0.35269957  0.62246981  0.09413346    -0.58200
Mn86       Mn  0.33454046  0.48733857  0.00076475     1.20200
Mn87       Mn  0.38997819  0.58388093  0.00427607     1.10100
Cl88       Cl  0.38894212  0.48640693  0.99715481    -0.86100
C89         C  0.32616733  0.61727450  0.10857800     0.96200
C90         C  0.32401577  0.64012378  0.92424342     0.96000
N91         N  0.21986453  0.04975522  0.31462788    -0.06300
N92         N  0.20617443  0.06994581  0.35539544    -0.58400
N93         N  0.20153982  0.93383508  0.27402499    -0.06000
N94         N  0.17910992  0.90629306  0.28200338    -0.60500
N95         N  0.21824243  0.93183257  0.31469471    -0.05600
N96         N  0.20629068  0.90353638  0.35221450    -0.58400
N97         N  0.20388658  0.05282986  0.27294667    -0.05200
N98         N  0.18039127  0.07680511  0.28400235    -0.60900
C99         C  0.18162921  0.08686300  0.33518888     0.95900
C100        C  0.18209852  0.88713695  0.33022658     0.95700
N101        N  0.22150121  0.92488536  0.11813462    -0.06500
N102        N  0.22226837  0.87642166  0.09823259    -0.59000
N103        N  0.20548195  0.05447923  0.15343098    -0.04600
N104        N  0.19361281  0.10190681  0.15585956    -0.60200
N105        N  0.22376260  0.05207044  0.11549414    -0.06500
N106        N  0.22452992  0.09833865  0.09094212    -0.59200
N107        N  0.20271097  0.92820052  0.15507850    -0.04200
N108        N  0.19007565  0.88228991  0.16066792    -0.60300
Mn109      Mn  0.20318528  0.99254892  0.21277545     1.18400
C110        C  0.20250557  0.85047612  0.12499603     0.98000
C111        C  0.20559895  0.12901714  0.11667911     0.98600
N112        N  0.28856976  0.92749666  0.31606100    -0.06500
N113        N  0.30113135  0.90428120  0.35629283    -0.62800
N114        N  0.30632372  0.04234228  0.27042998    -0.05300
N115        N  0.32930371  0.06819511  0.27677300    -0.63500
N116        N  0.29044294  0.04568151  0.31231242    -0.06000
N117        N  0.30380374  0.07324930  0.34893730    -0.63100
N118        N  0.30469540  0.92376089  0.27442743    -0.04900
N119        N  0.32734313  0.89689942  0.28481995    -0.63800
Mn120      Mn  0.25428576  0.98879357  0.31682593     1.10700
C121        C  0.32510387  0.88460098  0.33539581     0.99200
C122        C  0.32793278  0.08816522  0.32508484     0.99300
N123        N  0.28691752  0.04386250  0.11491730    -0.06000
N124        N  0.28675586  0.09111695  0.09286700    -0.61400
N125        N  0.30285933  0.91750205  0.15408292    -0.05300
N126        N  0.31409260  0.87011255  0.15946908    -0.58100
N127        N  0.28420773  0.91716076  0.11712412    -0.06700
N128        N  0.28244389  0.86858671  0.09707168    -0.61000
N129        N  0.30543354  0.04216561  0.15215475    -0.05600
N130        N  0.31826063  0.08793828  0.15629410    -0.58200
Mn131      Mn  0.25403627  0.98448657  0.11344861     1.20200
Mn132      Mn  0.30491633  0.98116774  0.21175636     1.10100
Cl133      Cl  0.25408500  0.98670074  0.21497068    -0.86100
C134        C  0.30657812  0.11786521  0.11889379     0.96200
C135        C  0.30155048  0.83931960  0.12356447     0.96000
N136        N  0.20984369  0.06812498  0.87023782    -0.06300
N137        N  0.21064206  0.11692426  0.88943617    -0.58400
N138        N  0.19086248  0.94167212  0.83259838    -0.06000
N139        N  0.17915939  0.89495822  0.82610100    -0.60500
N140        N  0.20695087  0.94124753  0.87375483    -0.05600
N141        N  0.20651525  0.89386269  0.89534178    -0.58400
N142        N  0.19360728  0.06712879  0.82934455    -0.05200
N143        N  0.18317940  0.11467256  0.82045860    -0.60900
C144        C  0.19362122  0.14605206  0.85831896     0.95900
C145        C  0.18887468  0.86497364  0.86580050     0.95700
N146        N  0.21692395  0.93954689  0.67645861    -0.06500
N147        N  0.20557006  0.91731132  0.63450304    -0.59000
N148        N  0.20060044  0.06006721  0.71069393    -0.04600
N149        N  0.17977754  0.09010897  0.69613317    -0.60200
N150        N  0.21998628  0.05773789  0.67425940    -0.06500
N151        N  0.21155512  0.08543360  0.63291755    -0.59200
N152        N  0.19848693  0.94068617  0.71460097    -0.04200
N153        N  0.17560844  0.91761555  0.70061256    -0.60300
Mn154      Mn  0.19561832  0.00240693  0.77262643     1.18400
C155        C  0.17974630  0.90355579  0.65089698     0.98000
C156        C  0.18660422  0.10623221  0.64815570     0.98600
N157        N  0.26918691  0.93453972  0.88974357    -0.06500
N158        N  0.26617250  0.88903344  0.91483610    -0.62800
N159        N  0.29352285  0.05737849  0.85170850    -0.05300
N160        N  0.30570301  0.10377815  0.84610639    -0.63500
N161        N  0.27255340  0.06160683  0.88432503    -0.06000
N162        N  0.27026253  0.11105533  0.90138084    -0.63100
N163        N  0.29000475  0.93092160  0.85680136    -0.04900
N164        N  0.30159282  0.88332506  0.85888542    -0.63800
Mn165      Mn  0.23946329  0.00160531  0.88254211     1.10700
C166        C  0.28664737  0.85753575  0.89524529     0.99200
C167        C  0.29116194  0.13709292  0.87753499     0.99300
N168        N  0.28992698  0.04855632  0.69008539    -0.06000
N169        N  0.30593817  0.06837813  0.65274752    -0.61400
N170        N  0.29959711  0.92875127  0.73730301    -0.05300
N171        N  0.32333722  0.90370234  0.73159839    -0.58100
N172        N  0.28645949  0.93179393  0.69223065    -0.06700
N173        N  0.30247017  0.91047341  0.65520481    -0.61000
N174        N  0.30404483  0.04731764  0.73412231    -0.05600
N175        N  0.32876531  0.06740308  0.72790551    -0.58200
Mn176      Mn  0.25332920  0.99454905  0.68140437     1.20200
Mn177      Mn  0.29686185  0.99090961  0.79625023     1.10100
Cl178      Cl  0.24638865  0.99749151  0.78257957    -0.86100
C179        C  0.33012412  0.08028094  0.67730825     0.96200
C180        C  0.32554906  0.89272231  0.68054517     0.96000
N181        N  0.03868116  0.19153867  0.44066395    -0.06300
N182        N  0.05369625  0.15023537  0.42445853    -0.58400
N183        N  0.05453160  0.24607785  0.55249619    -0.06000
N184        N  0.07920886  0.24081137  0.57319508    -0.60500
N185        N  0.04078950  0.20100799  0.55467902    -0.05600
N186        N  0.05728734  0.16395506  0.57534506    -0.58400
N187        N  0.05345747  0.23514709  0.43604749    -0.05200
N188        N  0.07772595  0.22427882  0.41508218    -0.60900
C189        C  0.07797050  0.17155944  0.40846815     0.95900
C190        C  0.08108008  0.18993633  0.58750083     0.95700
N191        N  0.02593430  0.40306235  0.54288634    -0.06500
N192        N  0.02510239  0.43277770  0.58582917    -0.59000
N193        N  0.04566825  0.35668532  0.42307842    -0.04600
N194        N  0.05959123  0.35343512  0.37846246    -0.60200
N195        N  0.02459748  0.38943184  0.41905063    -0.06500
N196        N  0.02364751  0.40870336  0.37094953    -0.59200
N197        N  0.04630527  0.36877045  0.54564871    -0.04200
N198        N  0.05973317  0.37433663  0.59036301    -0.60300
Mn199      Mn  0.04995668  0.30272195  0.48937967     1.18400
C200        C  0.04652752  0.41490075  0.61521101     0.98000
C201        C  0.04594053  0.38655684  0.34611791     0.98600
N202        N  0.46996853  0.18882294  0.55909442    -0.06500
N203        N  0.45805307  0.14795094  0.58280386    -0.62800
N204        N  0.45014101  0.21761309  0.44135133    -0.05300
N205        N  0.42798886  0.20263298  0.41618407    -0.63500
N206        N  0.46884500  0.17919227  0.44316531    -0.06000
N207        N  0.45867334  0.13611143  0.41996268    -0.63100
N208        N  0.45235924  0.22910132  0.55903109    -0.04900
N209        N  0.42984655  0.21798830  0.58506340    -0.63800
Mn210      Mn  0.50455533  0.18824606  0.49959656     1.10700
C211        C  0.43296941  0.16741141  0.59901228     0.99200
C212        C  0.43330266  0.15234150  0.40260909     0.99300
N213        N  0.45955514  0.37897156  0.42471515    -0.06000
N214        N  0.45537215  0.40062866  0.37827166    -0.61400
N215        N  0.44597038  0.34737178  0.55114531    -0.05300
N216        N  0.43575702  0.34048518  0.59833657    -0.58100
N217        N  0.46340537  0.38681706  0.55020392    -0.06700
N218        N  0.46581420  0.40664387  0.59811222    -0.61000
N219        N  0.44339846  0.33802247  0.43013912    -0.05600
N220        N  0.42810425  0.33060422  0.38810853    -0.58200
Mn221      Mn  0.49311896  0.39247680  0.48350681     1.20200
Mn222      Mn  0.44806541  0.28387233  0.49497072     1.10100
Cl223      Cl  0.49919110  0.29061146  0.49142286    -0.86100
C224        C  0.43535819  0.37034681  0.35604525     0.96200
C225        C  0.44804886  0.37773310  0.62738377     0.96000
N226        N  0.03348093  0.58785764  0.44337930    -0.06300
N227        N  0.03138963  0.56657653  0.39625682    -0.58400
N228        N  0.05244074  0.63020907  0.56570191    -0.06000
N229        N  0.06538446  0.63555443  0.61068542    -0.60500
N230        N  0.03301220  0.59445312  0.56899763    -0.05600
N231        N  0.03226750  0.57521206  0.61708674    -0.58400
N232        N  0.05287357  0.62390216  0.44295511    -0.05200
N233        N  0.06437293  0.62730201  0.39617350    -0.60900
C234        C  0.05113172  0.59072590  0.36741864     0.95900
C235        C  0.05309273  0.60030522  0.64237380     0.95700
N236        N  0.03850867  0.79471526  0.55159813    -0.06500
N237        N  0.05315096  0.83690941  0.56520034    -0.59000
N238        N  0.05549216  0.74466779  0.43967516    -0.04600
N239        N  0.07896492  0.75202014  0.41510889    -0.60200
N240        N  0.03936678  0.78718260  0.43706348    -0.06500
N241        N  0.05287960  0.82512894  0.41181555    -0.59200
N242        N  0.05428541  0.75183865  0.55672816    -0.04200
N243        N  0.07851860  0.76397679  0.57599097    -0.60300
Mn244      Mn  0.05371116  0.68649472  0.50150846     1.18400
C245        C  0.07806786  0.81680670  0.58035262     0.98000
C246        C  0.07736914  0.80177594  0.39748914     0.98600
N247        N  0.46906822  0.59950160  0.56745700    -0.06500
N248        N  0.46931699  0.58197205  0.61607029    -0.62800
N249        N  0.45183589  0.62765566  0.44027092    -0.05300
N250        N  0.43963652  0.62829925  0.39426452    -0.63500
N251        N  0.46988650  0.58873633  0.44274156    -0.06000
N252        N  0.47013902  0.56209984  0.39793000    -0.63100
N253        N  0.45064646  0.63775955  0.56324360    -0.04900
N254        N  0.43812367  0.64699286  0.60842797    -0.63800
Mn255      Mn  0.50137209  0.58965363  0.50598613     1.10700
C256        C  0.44973980  0.61150597  0.64105222     0.99200
C257        C  0.45089213  0.58688843  0.36774400     0.99300
N258        N  0.46894397  0.79099466  0.43486714    -0.06000
N259        N  0.45647972  0.83051946  0.40950842    -0.61400
N260        N  0.45063778  0.75721920  0.55239459    -0.05300
N261        N  0.42767901  0.76892253  0.57743028    -0.58100
N262        N  0.46758907  0.79792256  0.55136785    -0.06700
N263        N  0.45522358  0.83916188  0.57487183    -0.61000
N264        N  0.45251645  0.74945418  0.43506730    -0.05600
N265        N  0.42994093  0.75896395  0.40852628    -0.58200
Mn266      Mn  0.50351063  0.79481903  0.49376531     1.20200
Mn267      Mn  0.45131988  0.69202572  0.49752868     1.10100
Cl268      Cl  0.50250578  0.69210804  0.49973978    -0.86100
C269        C  0.43232543  0.80910497  0.39241566     0.96200
C270        C  0.43042187  0.81965812  0.59146355     0.96000
C271        C  0.35313618  0.87824465  0.65569941    -0.05500
C272        C  0.37832514  0.88047161  0.68514150    -0.02600
C273        C  0.40423917  0.86892818  0.66145236     0.02400
C274        C  0.40554236  0.85001645  0.60991720    -0.05500
C275        C  0.38069923  0.84710288  0.58064772    -0.02600
C276        C  0.35501067  0.86327315  0.60247250     0.02400
C277        C  0.37824427  0.89201001  0.74073882     0.37000
C278        C  0.38104165  0.82322947  0.52898157     0.37000
C279        C  0.33044893  0.86177545  0.57012733     0.35400
C280        C  0.42957137  0.87324654  0.69136015     0.35400
N281        N  0.31103804  0.86079096  0.54381458    -0.39400
N282        N  0.44971591  0.87708188  0.71530119    -0.39400
N283        N  0.38090053  0.80241712  0.48865225    -0.38800
N284        N  0.37835297  0.90051080  0.78519784    -0.38800
C285        C  0.15534323  0.89083802  0.61811454    -0.05500
C286        C  0.15532115  0.84625474  0.58522189    -0.02600
C287        C  0.12990093  0.82527756  0.56808886     0.02400
C288        C  0.10428362  0.84704351  0.58665919    -0.05500
C289        C  0.10452996  0.89549241  0.61393790    -0.02600
C290        C  0.12994372  0.91808907  0.62831561     0.02400
C291        C  0.18126519  0.82025767  0.57156033     0.37000
C292        C  0.07874776  0.92057285  0.63016520     0.37000
C293        C  0.12978102  0.96871980  0.65558760     0.35400
C294        C  0.13039327  0.78159008  0.53098765     0.35400
N295        N  0.12964282  0.00897342  0.67747314    -0.39400
N296        N  0.13099508  0.74699307  0.50112286    -0.39400
N297        N  0.05820092  0.94056644  0.64324088    -0.38800
N298        N  0.20199027  0.79957546  0.56071218    -0.38800
C299        C  0.35688692  0.09607996  0.65198624    -0.05500
C300        C  0.35694940  0.12977594  0.60836802    -0.02600
C301        C  0.38216277  0.14873136  0.58816392     0.02400
C302        C  0.40783847  0.13625297  0.61273952    -0.05500
C303        C  0.40807636  0.09990731  0.65396425    -0.02600
C304        C  0.38287500  0.07948171  0.67324524     0.02400
C305        C  0.33102574  0.14817967  0.58611159     0.37000
C306        C  0.43414393  0.08550082  0.67830908     0.37000
C307        C  0.38419059  0.04222665  0.71599732     0.35400
C308        C  0.38139009  0.18100958  0.54135998     0.35400
N309        N  0.38567958  0.01327628  0.75075120    -0.39400
N310        N  0.38063093  0.20644846  0.50390203    -0.39400
N311        N  0.45489377  0.07396077  0.69779795    -0.38800
N312        N  0.31043440  0.16335102  0.56845756    -0.38800
C313        C  0.10902789  0.16655853  0.60030507    -0.05500
C314        C  0.12775074  0.19786939  0.62946995    -0.02600
C315        C  0.15591080  0.18311321  0.63365390     0.02400
C316        C  0.16509839  0.13310884  0.61597848    -0.05500
C317        C  0.14694298  0.10217879  0.58551342    -0.02600
C318        C  0.11927988  0.11947979  0.57635213     0.02400
C319        C  0.11738987  0.24270790  0.65955349     0.37000
C320        C  0.15655077  0.05148923  0.56537000     0.37000
C321        C  0.10163082  0.08882331  0.54233866     0.35400
C322        C  0.17560475  0.21832320  0.65819337     0.35400
N323        N  0.08760356  0.06433641  0.51497770    -0.39400
N324        N  0.19172786  0.24601969  0.67708925    -0.39400
N325        N  0.16434336  0.01091161  0.54968445    -0.38800
N326        N  0.10839453  0.27700173  0.68469997    -0.38800
C327        C  0.40687743  0.83686444  0.37361297    -0.05500
C328        C  0.39504495  0.88030187  0.40119543    -0.02600
C329        C  0.36654802  0.89326443  0.39458921     0.02400
C330        C  0.34959109  0.86167081  0.36240301    -0.05500
C331        C  0.36109624  0.81608306  0.33920404    -0.02600
C332        C  0.38980447  0.80731119  0.34000820     0.02400
C333        C  0.41172077  0.91005168  0.43771761     0.37000
C334        C  0.34265520  0.77686022  0.31757242     0.37000
C335        C  0.40245124  0.76973996  0.30425848     0.35400
C336        C  0.35405905  0.93593141  0.42432407     0.35400
N337        N  0.41377822  0.74201237  0.27503280    -0.39400
N338        N  0.34379114  0.96864804  0.44969673    -0.39400
N339        N  0.32701773  0.74598009  0.30252382    -0.38800
N340        N  0.42509478  0.93360078  0.46698611    -0.38800
C341        C  0.15808749  0.86102802  0.35556636    -0.05500
C342        C  0.14172946  0.88883226  0.39278014    -0.02600
C343        C  0.11450181  0.87186128  0.40467087     0.02400
C344        C  0.10307108  0.82779565  0.37825773    -0.05500
C345        C  0.11948217  0.80039522  0.34077895    -0.02600
C346        C  0.14682300  0.81634166  0.33020185     0.02400
C347        C  0.15231905  0.93675417  0.41649554     0.37000
C348        C  0.10787408  0.75625961  0.31179636     0.37000
C349        C  0.16332725  0.78744764  0.29176514     0.35400
C350        C  0.09849666  0.89931509  0.44461641     0.35400
N351        N  0.17659409  0.76464661  0.26119187    -0.39400
N352        N  0.08569722  0.92126836  0.47645316    -0.39400
N353        N  0.09848101  0.72135397  0.28855799    -0.38800
N354        N  0.16077870  0.97532567  0.43480668    -0.38800
C355        C  0.35418879  0.10872366  0.34868734    -0.05500
C356        C  0.37468943  0.12855877  0.31404516    -0.02600
C357        C  0.40258020  0.13176445  0.32934991     0.02400
C358        C  0.41044119  0.12027756  0.38080512    -0.05500
C359        C  0.39022396  0.10054023  0.41556706    -0.02600
C360        C  0.36201964  0.09721810  0.40048091     0.02400
C361        C  0.36703037  0.14828276  0.26279197     0.37000
C362        C  0.39885214  0.08163045  0.46625900     0.37000
C363        C  0.34098614  0.08618802  0.43914075     0.35400
C364        C  0.42351758  0.14607939  0.29141161     0.35400
N365        N  0.32405659  0.07870517  0.47023585    -0.39400
N366        N  0.43996139  0.15598954  0.26010953    -0.39400
N367        N  0.40591561  0.06495554  0.50609436    -0.38800
N368        N  0.36098324  0.16414504  0.22203121    -0.38800
C369        C  0.15584002  0.09941012  0.36491848    -0.05500
C370        C  0.13059165  0.07487563  0.35033788    -0.02600
C371        C  0.10496485  0.09626485  0.36713007     0.02400
C372        C  0.10434387  0.14171530  0.39912577    -0.05500
C373        C  0.12964332  0.16098499  0.41995950    -0.02600
C374        C  0.15527014  0.14014258  0.40241062     0.02400
C375        C  0.13072400  0.02785155  0.31739462     0.37000
C376        C  0.12959413  0.20237842  0.45949626     0.37000
C377        C  0.18099822  0.16252001  0.42079048     0.35400
C378        C  0.07931441  0.07298359  0.34932394     0.35400
N379        N  0.20157944  0.18019646  0.43542490    -0.39400
N380        N  0.05884618  0.05433825  0.33528275    -0.39400
N381        N  0.12974455  0.23545706  0.49097747    -0.38800
N382        N  0.13046947  0.99039614  0.29110863    -0.38800
C383        C  0.31053885  0.66617476  0.12372186    -0.05500
C384        C  0.29280401  0.69085225  0.08746515    -0.02600
C385        C  0.28906591  0.74678097  0.08802668     0.02400
C386        C  0.30457976  0.77926926  0.12253222    -0.05500
C387        C  0.32224533  0.75316032  0.15886631    -0.02600
C388        C  0.32238115  0.69742802  0.16290887     0.02400
C389        C  0.28001425  0.65902317  0.04715966     0.37000
C390        C  0.34324173  0.78199647  0.18709514     0.37000
C391        C  0.33567110  0.67106045  0.20634265     0.35400
C392        C  0.27113736  0.77030324  0.04960782     0.35400
N393        N  0.34549248  0.64888297  0.24119050    -0.39400
N394        N  0.25721294  0.78852330  0.01777377    -0.39400
N395        N  0.36065175  0.80513184  0.20777539    -0.38800
N396        N  0.27005048  0.63325551  0.01497301    -0.38800
C397        C  0.32088383  0.28484994  0.09502214    -0.05500
C398        C  0.30563081  0.26811316  0.13884634    -0.02600
C399        C  0.30196217  0.21319179  0.14806780     0.02400
C400        C  0.31215835  0.17499834  0.11206649    -0.05500
C401        C  0.32765522  0.19119431  0.06891485    -0.02600
C402        C  0.33173241  0.24544823  0.05984866     0.02400
C403        C  0.29493354  0.30708672  0.17555148     0.37000
C404        C  0.33927518  0.15158850  0.03329625     0.37000
C405        C  0.34829039  0.25949137  0.01468174     0.35400
C406        C  0.28982673  0.19539189  0.19657666     0.35400
N407        N  0.36222597  0.26867947  0.97917317    -0.39400
N408        N  0.28117295  0.18005883  0.23578146    -0.39400
N409        N  0.34814340  0.12015160  0.00452240    -0.38800
N410        N  0.28627732  0.33834072  0.20472282    -0.38800
C411        C  0.30958276  0.69345106  0.92375561    -0.05500
C412        C  0.32008959  0.73544900  0.95532481    -0.02600
C413        C  0.31137178  0.78846808  0.94763564     0.02400
C414        C  0.29173717  0.80078824  0.90912678    -0.05500
C415        C  0.27969160  0.75899235  0.88016762    -0.02600
C416        C  0.28852177  0.70554908  0.88753471     0.02400
C417        C  0.34056394  0.72508552  0.99546594     0.37000
C418        C  0.25925156  0.77135545  0.84071291     0.37000
C419        C  0.27745329  0.66363955  0.85522874     0.35400
C420        C  0.32302308  0.83087601  0.97894282     0.35400
N421        N  0.26877511  0.62999116  0.82930227    -0.39400
N422        N  0.33221959  0.86470471  0.00398056    -0.39400
N423        N  0.24308679  0.78120314  0.80895063    -0.38800
N424        N  0.35707885  0.71806188  0.02730796    -0.38800
C425        C  0.30494261  0.30753851  0.88520936    -0.05500
C426        C  0.30679648  0.28048819  0.83687324    -0.02600
C427        C  0.30086926  0.22553779  0.83352863     0.02400
C428        C  0.29475315  0.19627772  0.87920361    -0.05500
C429        C  0.29085098  0.22444883  0.92638391    -0.02600
C430        C  0.29433135  0.27997085  0.92854082     0.02400
C431        C  0.31358750  0.30967009  0.79009028     0.37000
C432        C  0.28420394  0.19575209  0.97327683     0.37000
C433        C  0.28648467  0.30887507  0.97521880     0.35400
C434        C  0.29982425  0.19996445  0.78277171     0.35400
N435        N  0.27902874  0.33168294  0.01199178    -0.39400
N436        N  0.29846632  0.18007053  0.74207218    -0.39400
N437        N  0.27822447  0.17141316  0.00965256    -0.38800
N438        N  0.31840086  0.33238146  0.75203330    -0.38800
C439        C  0.44017921  0.60056580  0.80875472    -0.05500
C440        C  0.43123798  0.55923221  0.77584049    -0.02600
C441        C  0.43405530  0.56306227  0.72109905     0.02400
C442        C  0.44438902  0.60964975  0.69855824    -0.05500
C443        C  0.44855006  0.65446410  0.73107373    -0.02600
C444        C  0.44697065  0.64961319  0.78616375     0.02400
C445        C  0.41515917  0.51742124  0.79879583     0.37000
C446        C  0.45289756  0.70603432  0.70811699     0.37000
C447        C  0.45083152  0.69548778  0.81944090     0.35400
C448        C  0.42352423  0.52211118  0.68710386     0.35400
N449        N  0.45343787  0.73227221  0.84612409    -0.39400
N450        N  0.41492863  0.49149393  0.65777473    -0.39400
N451        N  0.45573849  0.74760913  0.69013765    -0.38800
N452        N  0.40122377  0.48760073  0.82020817    -0.38800
C453        C  0.44458648  0.57801184  0.19673085    -0.05500
C454        C  0.42600031  0.60946954  0.22716660    -0.02600
C455        C  0.42578955  0.60623460  0.28241319     0.02400
C456        C  0.44726885  0.57922517  0.30928787    -0.05500
C457        C  0.46676887  0.55021758  0.27883351    -0.02600
C458        C  0.46489223  0.54802430  0.22362997     0.02400
C459        C  0.40867657  0.64894499  0.20213281     0.37000
C460        C  0.48983992  0.52399970  0.30333577     0.37000
C461        C  0.48519942  0.51686194  0.19488039     0.35400
C462        C  0.40274415  0.62943182  0.31127650     0.35400
N463        N  0.50158064  0.49209635  0.17226029    -0.39400
N464        N  0.38437726  0.64731437  0.33480902    -0.39400
N465        N  0.50875865  0.50286465  0.32143762    -0.38800
N466        N  0.39607855  0.68153954  0.18089043    -0.38800
C467        C  0.44094263  0.38180602  0.79612503    -0.05500
C468        C  0.41700859  0.38112388  0.76415047    -0.02600
C469        C  0.41947933  0.38046477  0.70928185     0.02400
C470        C  0.44581264  0.37830807  0.68550424    -0.05500
C471        C  0.46913826  0.36849525  0.71732094    -0.02600
C472        C  0.46690995  0.37242621  0.77241850     0.02400
C473        C  0.38956475  0.38146083  0.78687752     0.37000
C474        C  0.49399912  0.34615493  0.69400913     0.37000
C475        C  0.49058996  0.36097095  0.80510845     0.35400
C476        C  0.39469640  0.38108951  0.67730392     0.35400
N477        N  0.00916866  0.35117166  0.83184829    -0.39400
N478        N  0.37493256  0.38158076  0.65191662    -0.39400
N479        N  0.51342581  0.32622600  0.67573975    -0.38800
N480        N  0.36744435  0.38258272  0.80411484    -0.38800
C481        C  0.43085149  0.37816557  0.18760509    -0.05500
C482        C  0.41793569  0.41807710  0.21847655    -0.02600
C483        C  0.41739207  0.41398971  0.27371386     0.02400
C484        C  0.42931181  0.36951325  0.29860660    -0.05500
C485        C  0.43953538  0.32700160  0.26734003    -0.02600
C486        C  0.43962531  0.33084387  0.21213754     0.02400
C487        C  0.40360785  0.46157490  0.19317189     0.37000
C488        C  0.45330685  0.28244975  0.29206279     0.37000
C489        C  0.44926797  0.28633117  0.18074152     0.35400
C490        C  0.40484749  0.45572740  0.30508556     0.35400
N491        N  0.45676800  0.25059499  0.15576836    -0.39400
N492        N  0.39465904  0.48880530  0.33025588    -0.39400
N493        N  0.46486741  0.24802486  0.31259452    -0.38800
N494        N  0.39155755  0.49548262  0.17279047    -0.38800
C495        C  0.18016660  0.69282254  0.88149114    -0.05500
C496        C  0.19300114  0.72333167  0.92051289    -0.02600
C497        C  0.19403347  0.77914727  0.91661697     0.02400
C498        C  0.18526671  0.80550163  0.87070555    -0.05500
C499        C  0.17451289  0.77383747  0.82938012    -0.02600
C500        C  0.17154109  0.71825621  0.83540191     0.02400
C501        C  0.20428327  0.69701955  0.96580541     0.37000
C502        C  0.16554770  0.79748899  0.78086060     0.37000
C503        C  0.15898309  0.68685731  0.79435234     0.35400
C504        C  0.20165921  0.80996638  0.96188600     0.35400
N505        N  0.14910628  0.66179888  0.76149425    -0.39400
N506        N  0.20699393  0.83719314  0.99672698    -0.39400
N507        N  0.15802323  0.81498668  0.74168546    -0.38800
N508        N  0.21378004  0.67539010  0.00121971    -0.38800
C509        C  0.18535760  0.31972246  0.85959572    -0.05500
C510        C  0.17475070  0.28925685  0.81809836    -0.02600
C511        C  0.17576454  0.23322307  0.81933004     0.02400
C512        C  0.19101864  0.20620538  0.85857950    -0.05500
C513        C  0.20423349  0.23765471  0.89704843    -0.02600
C514        C  0.20149001  0.29368396  0.89754025     0.02400
C515        C  0.16283095  0.31583084  0.77348140     0.37000
C516        C  0.21702951  0.21233754  0.94097374     0.37000
C517        C  0.21287929  0.32410980  0.94037889     0.35400
C518        C  0.15821290  0.20422738  0.78367224     0.35400
N519        N  0.22162744  0.34874098  0.97462809    -0.39400
N520        N  0.14358102  0.18059655  0.75675301    -0.39400
N521        N  0.22585459  0.19101086  0.97701914    -0.38800
N522        N  0.15430450  0.33603944  0.73637663    -0.38800
C523        C  0.19539710  0.79397179  0.11662142    -0.05500
C524        C  0.17205653  0.78195699  0.08674924    -0.02600
C525        C  0.16516149  0.72889559  0.07671702     0.02400
C526        C  0.18051576  0.68623625  0.09969830    -0.05500
C527        C  0.20417728  0.69855825  0.12948724    -0.02600
C528        C  0.21147341  0.75235758  0.13816870     0.02400
C529        C  0.15479471  0.82467504  0.06651681     0.37000
C530        C  0.22063165  0.65634103  0.15205461     0.37000
C531        C  0.23437796  0.76517443  0.17217604     0.35400
C532        C  0.14226112  0.71928936  0.04139507     0.35400
N533        N  0.25233444  0.77567669  0.19998735    -0.39400
N534        N  0.12375486  0.71272024  0.01368775    -0.39400
N535        N  0.23404780  0.62290388  0.17009343    -0.38800
N536        N  0.14105063  0.85867584  0.05043735    -0.38800
C537        C  0.18310051  0.29243475  0.07873618    -0.05500
C538        C  0.19786788  0.28128077  0.12492451    -0.02600
C539        C  0.20481675  0.22798373  0.13803342     0.02400
C540        C  0.19850470  0.18547137  0.10373710    -0.05500
C541        C  0.18320231  0.19637145  0.05844934    -0.02600
C542        C  0.17573453  0.24906736  0.04574015     0.02400
C543        C  0.20383734  0.32400014  0.16103045     0.37000
C544        C  0.17378033  0.15266830  0.02610277     0.37000
C545        C  0.15909995  0.25772449  0.99933310     0.35400
C546        C  0.21577162  0.21656964  0.18932661     0.35400
N547        N  0.14543551  0.26405877  0.96288622    -0.39400
N548        N  0.22336950  0.20798712  0.23119506    -0.39400
N549        N  0.16640097  0.11782808  0.00019958    -0.38800
N550        N  0.20851987  0.35805571  0.19009788    -0.38800
C551        C  0.05510265  0.60450986  0.70036353    -0.05500
C552        C  0.03928910  0.64361599  0.72709964    -0.02600
C553        C  0.04027722  0.64752749  0.78219235     0.02400
C554        C  0.05714919  0.61245394  0.81077733    -0.05500
C555        C  0.07560978  0.57823172  0.78367811    -0.02600
C556        C  0.07475050  0.57457496  0.72855328     0.02400
C557        C  0.02419111  0.68279112  0.69709052     0.37000
C558        C  0.09645905  0.54937467  0.81291689     0.37000
C559        C  0.09547589  0.54370841  0.70067135     0.35400
C560        C  0.02593255  0.69023713  0.80920155     0.35400
N561        N  0.11253659  0.52027319  0.67841668    -0.39400
N562        N  0.01529172  0.72523768  0.83092799    -0.39400
N563        N  0.11306929  0.52793133  0.83772938    -0.38800
N564        N  0.01331806  0.71438881  0.67157433    -0.38800
C565        C  0.05412674  0.58478719  0.19812550    -0.05500
C566        C  0.07473981  0.55900031  0.22803033    -0.02600
C567        C  0.07392950  0.56128447  0.28322537     0.02400
C568        C  0.05247387  0.58927170  0.30911204    -0.05500
C569        C  0.03274675  0.61761856  0.27909312    -0.02600
C570        C  0.03335830  0.61472742  0.22383455     0.02400
C571        C  0.09723809  0.53125889  0.20168760     0.37000
C572        C  0.01234593  0.65118313  0.30503171     0.37000
C573        C  0.01312500  0.64370486  0.19321814     0.35400
C574        C  0.09573198  0.53644975  0.31342348     0.35400
N575        N  0.99705840  0.66663781  0.16841910    -0.39400
N576        N  0.11333105  0.51730716  0.33759762    -0.39400
N577        N  0.99618339  0.67835348  0.32557121    -0.38800
N578        N  0.11524112  0.50998883  0.17997892    -0.38800
C579        C  0.05670590  0.43555461  0.78365675    -0.05500
C580        C  0.03302712  0.45646653  0.75859702    -0.02600
C581        C  0.03043219  0.45338989  0.70351894     0.02400
C582        C  0.05130569  0.42892289  0.67220936    -0.05500
C583        C  0.07655566  0.41538304  0.69685617    -0.02600
C584        C  0.07948906  0.42074634  0.75168526     0.02400
C585        C  0.01128113  0.48236384  0.78875615     0.37000
C586        C  0.10036577  0.39943601  0.66570752     0.37000
C587        C  0.10692719  0.41970989  0.77384440     0.35400
C588        C  0.00548321  0.47387774  0.68034121     0.35400
N589        N  0.12890544  0.42223639  0.79130044    -0.39400
N590        N  0.48503160  0.49005545  0.66329546    -0.39400
N591        N  0.11945848  0.38724162  0.64085657    -0.38800
N592        N  0.49386351  0.50356868  0.81215203    -0.38800
C593        C  0.05147461  0.38826626  0.28794148    -0.05500
C594        C  0.02934286  0.38695908  0.25219947    -0.02600
C595        C  0.03389821  0.38120156  0.19836839     0.02400
C596        C  0.06051935  0.38492655  0.17756848    -0.05500
C597        C  0.08329079  0.38562811  0.21217035    -0.02600
C598        C  0.07878298  0.38618743  0.26725925     0.02400
C599        C  0.00179084  0.39829394  0.26871825     0.37000
C600        C  0.11120934  0.38616211  0.19162441     0.37000
C601        C  0.10225036  0.38778604  0.30222300     0.35400
C602        C  0.01119612  0.36980406  0.16345798     0.35400
N603        N  0.12102914  0.38915797  0.33013088    -0.39400
N604        N  0.49430434  0.35966051  0.13332950    -0.39400
N605        N  0.13366238  0.38650297  0.17580803    -0.38800
N606        N  0.47987180  0.41262032  0.27937853    -0.38800
N607        N  0.66100669  0.42240434  0.03800956    -0.06300
N608        N  0.68145317  0.39286755  0.05821286    -0.58400
N609        N  0.63808184  0.40646062  0.91795614    -0.06000
N610        N  0.64341392  0.36483541  0.88842403    -0.60500
N611        N  0.66006293  0.43683350  0.92214075    -0.05600
N612        N  0.68106625  0.41380589  0.89662960    -0.58400
N613        N  0.63855049  0.39314150  0.03575524    -0.05200
N614        N  0.64264457  0.34642525  0.05653716    -0.60900
C615        C  0.66930260  0.34550334  0.07008558     0.95900
C616        C  0.67006017  0.36936543  0.87462506     0.95700
N617        N  0.55478484  0.44938510  0.92332032    -0.06500
N618        N  0.54411225  0.46135668  0.87709892    -0.59000
N619        N  0.57655086  0.39782455  0.04222291    -0.04600
N620        N  0.58134179  0.37331373  0.08714801    -0.60200
N621        N  0.55673697  0.43317846  0.04755837    -0.06500
N622        N  0.54746738  0.43314864  0.09621382    -0.59200
N623        N  0.57444030  0.41376998  0.91767986    -0.04200
N624        N  0.57745020  0.40085634  0.86768855    -0.60300
Mn625      Mn  0.60621735  0.40212689  0.97802402     1.18400
C626        C  0.55844714  0.43091709  0.84253377     0.98000
C627        C  0.56289194  0.39565138  0.12034612     0.98600
N628        N  0.65906329  0.57065290  0.93757520    -0.06500
N629        N  0.67832211  0.59574144  0.91003867    -0.62800
N630        N  0.63766523  0.58413138  0.06366980    -0.05300
N631        N  0.64192578  0.62584368  0.09304917    -0.63500
N632        N  0.66116466  0.55920385  0.05284400    -0.06000
N633        N  0.68192304  0.58910746  0.07003980    -0.63100
N634        N  0.63745328  0.60247508  0.94389471    -0.04900
N635        N  0.64096097  0.64736385  0.91916866    -0.63800
Mn636      Mn  0.66167884  0.49733992  0.98769580     1.10700
C637        C  0.66616247  0.64315045  0.89764738     0.99200
C638        C  0.66937519  0.63084687  0.09529795     0.99300
N639        N  0.55502162  0.55314296  0.06298576    -0.06000
N640        N  0.54267256  0.54851975  0.10902025    -0.61400
N641        N  0.57396886  0.60321013  0.94359316    -0.05300
N642        N  0.57632891  0.62969463  0.89933615    -0.58100
N643        N  0.55383032  0.56895524  0.94034990    -0.06700
N644        N  0.54207376  0.57181071  0.89388446    -0.61000
N645        N  0.57482404  0.58798109  0.06599122    -0.05600
N646        N  0.57643633  0.60792611  0.11362626    -0.58200
Mn647      Mn  0.55362857  0.50060614  0.99364898     1.20200
Mn648      Mn  0.60576273  0.59482632  0.00432875     1.10100
Cl649      Cl  0.60750498  0.49866642  0.99054122    -0.86100
C650        C  0.55597035  0.58372599  0.14000629     0.96200
C651        C  0.55591041  0.61051764  0.86884346     0.96000
N652        N  0.93966141  0.42152340  0.05584360    -0.06300
N653        N  0.94736652  0.42448370  0.10552594    -0.58400
N654        N  0.91998755  0.39164559  0.92843569    -0.06000
N655        N  0.91829833  0.36761570  0.88276828    -0.60500
N656        N  0.93989050  0.42658352  0.92871089    -0.05600
N657        N  0.95209458  0.42721536  0.88214307    -0.58400
N658        N  0.92135622  0.38389254  0.05059074    -0.05200
N659        N  0.91714172  0.35957126  0.09552068    -0.60900
C660        C  0.93355762  0.38474384  0.12959877     0.95900
C661        C  0.93848708  0.38968478  0.85402667     0.95700
N662        N  0.83414233  0.42482549  0.93773863    -0.06500
N663        N  0.81217381  0.40255785  0.91572851    -0.59000
N664        N  0.86055669  0.38830235  0.05385457    -0.04600
N665        N  0.85850175  0.34385842  0.07928350    -0.60200
N666        N  0.83708659  0.41504160  0.05375642    -0.06500
N667        N  0.81776230  0.38464647  0.07548626    -0.59200
N668        N  0.85554869  0.39205621  0.93348447    -0.04200
N669        N  0.84871622  0.34945889  0.90670558    -0.60300
Mn670      Mn  0.88967241  0.38885463  0.99067310     1.18400
C671        C  0.82182899  0.35596744  0.89509781     0.98000
C672        C  0.83183229  0.34005170  0.09132366     0.98600
N673        N  0.94040763  0.54966568  0.93730731    -0.06500
N674        N  0.95224871  0.55168896  0.89069725    -0.62800
N675        N  0.92213622  0.57788840  0.06370345    -0.05300
N676        N  0.92110899  0.59897945  0.11093152    -0.63500
N677        N  0.94184628  0.54206012  0.06087168    -0.07200
N678        N  0.95446588  0.53817214  0.10653222    -0.63100
N679        N  0.92101774  0.58635359  0.94111108    -0.04900
N680        N  0.91950698  0.61423513  0.89756402    -0.63800
Mn681      Mn  0.94215586  0.48469539  0.99533403     1.10700
C682        C  0.93946673  0.59292649  0.86660288     0.99200
C683        C  0.94151805  0.57441549  0.13779292     0.99300
N684        N  0.83656262  0.54893207  0.06352142    -0.06000
N685        N  0.81546891  0.57177976  0.08874750    -0.61400
N686        N  0.85695229  0.59021016  0.94719774    -0.05300
N687        N  0.85146693  0.63811081  0.93011251    -0.58100
N688        N  0.83427973  0.56130770  0.94933978    -0.06700
N689        N  0.81274892  0.59220661  0.93655184    -0.61000
N690        N  0.85822784  0.58037598  0.06553272    -0.05600
N691        N  0.85269952  0.62246984  0.09413328    -0.58200
Mn692      Mn  0.83454045  0.48733863  0.00076450     1.20200
Mn693      Mn  0.88997817  0.58388104  0.00427595     1.10100
Cl694      Cl  0.88894212  0.48640705  0.99715466    -0.86100
C695        C  0.82616726  0.61727473  0.10857782     0.96200
C696        C  0.82401577  0.64012390  0.92424313     0.96000
N697        N  0.71986464  0.04975501  0.31462770    -0.06300
N698        N  0.70617448  0.06994567  0.35539575    -0.58400
N699        N  0.70153976  0.93383509  0.27402488    -0.06000
N700        N  0.67910988  0.90629309  0.28200348    -0.60500
N701        N  0.71824237  0.93183258  0.31469458    -0.05600
N702        N  0.70629059  0.90353627  0.35221444    -0.58400
N703        N  0.70388660  0.05282969  0.27294643    -0.05200
N704        N  0.68039126  0.07680517  0.28400254    -0.60900
C705        C  0.68162897  0.08686311  0.33518874     0.95900
C706        C  0.68209849  0.88713718  0.33022603     0.95700
N707        N  0.72150135  0.92488539  0.11813440    -0.06500
N708        N  0.72226833  0.87642151  0.09823263    -0.59000
N709        N  0.70548194  0.05447930  0.15343090    -0.04600
N710        N  0.69361290  0.10190693  0.15585929    -0.60200
N711        N  0.72376263  0.05207044  0.11549413    -0.06500
N712        N  0.72453001  0.09833858  0.09094191    -0.59200
N713        N  0.70271091  0.92820072  0.15507860    -0.04200
N714        N  0.69007562  0.88228984  0.16066782    -0.60300
Mn715      Mn  0.70318531  0.99254896  0.21277533     1.18400
C716        C  0.70250563  0.85047628  0.12499590     0.98000
C717        C  0.70559893  0.12901711  0.11667912     0.98600
N718        N  0.78856982  0.92749660  0.31606097    -0.06500
N719        N  0.80113131  0.90428116  0.35629271    -0.62800
N720        N  0.80632366  0.04234233  0.27043031    -0.05300
N721        N  0.82930365  0.06819495  0.27677283    -0.63500
N722        N  0.79044298  0.04568149  0.31231245    -0.06000
N723        N  0.80380368  0.07324911  0.34893721    -0.63100
N724        N  0.80469532  0.92376079  0.27442759    -0.04900
N725        N  0.82734314  0.89689949  0.28481985    -0.63800
Mn726      Mn  0.75428573  0.98879357  0.31682591     1.10700
C727        C  0.82510392  0.88460088  0.33539597     0.99200
C728        C  0.82793270  0.08816527  0.32508519     0.99300
N729        N  0.78691752  0.04386247  0.11491728    -0.06000
N730        N  0.78675587  0.09111717  0.09286712    -0.61400
N731        N  0.80285925  0.91750172  0.15408270    -0.05300
N732        N  0.81409258  0.87011278  0.15946908    -0.58100
N733        N  0.78420787  0.91716056  0.11712419    -0.06700
N734        N  0.78244390  0.86858691  0.09707166    -0.61000
N735        N  0.80543357  0.04216556  0.15215486    -0.05600
N736        N  0.81826067  0.08793846  0.15629413    -0.58200
Mn737      Mn  0.75403630  0.98448657  0.11344858     1.20200
Mn738      Mn  0.80491629  0.98116770  0.21175636     1.10100
Cl739      Cl  0.75408502  0.98670071  0.21497065    -0.86100
C740        C  0.80657810  0.11786534  0.11889372     0.96200
C741        C  0.80155051  0.83931950  0.12356434     0.96000
N742        N  0.70984373  0.06812494  0.87023796    -0.06300
N743        N  0.71064209  0.11692431  0.88943622    -0.58400
N744        N  0.69086246  0.94167200  0.83259847    -0.06000
N745        N  0.67915944  0.89495830  0.82610108    -0.60500
N746        N  0.70695084  0.94124737  0.87375484    -0.05600
N747        N  0.70651526  0.89386291  0.89534174    -0.58400
N748        N  0.69360721  0.06712870  0.82934455    -0.05200
N749        N  0.68317939  0.11467260  0.82045868    -0.60900
C750        C  0.69362122  0.14605221  0.85831900     0.95900
C751        C  0.68887462  0.86497367  0.86580033     0.95700
N752        N  0.71692387  0.93954693  0.67645873    -0.06500
N753        N  0.70557017  0.91731149  0.63450304    -0.59000
N754        N  0.70060045  0.06006724  0.71069397    -0.04600
N755        N  0.67977751  0.09010891  0.69613311    -0.60200
N756        N  0.71998628  0.05773786  0.67425944    -0.06500
N757        N  0.71155509  0.08543354  0.63291756    -0.59200
N758        N  0.69848691  0.94068616  0.71460084    -0.04200
N759        N  0.67560853  0.91761585  0.70061256    -0.60300
Mn760      Mn  0.69561835  0.00240700  0.77262648     1.18400
C761        C  0.67974614  0.90355588  0.65089707     0.98000
C762        C  0.68660421  0.10623214  0.64815564     0.98600
N763        N  0.76918701  0.93453973  0.88974341    -0.06500
N764        N  0.76617248  0.88903346  0.91483606    -0.62800
N765        N  0.79352286  0.05737851  0.85170850    -0.05300
N766        N  0.80570305  0.10377812  0.84610639    -0.63500
N767        N  0.77255348  0.06160703  0.88432499    -0.06000
N768        N  0.77026257  0.11105516  0.90138072    -0.63100
N769        N  0.79000472  0.93092153  0.85680154    -0.04900
N770        N  0.80159287  0.88332527  0.85888526    -0.63800
Mn771      Mn  0.73946331  0.00160533  0.88254210     1.10700
C772        C  0.78664742  0.85753575  0.89524512     0.99200
C773        C  0.79116197  0.13709286  0.87753496     0.99300
N774        N  0.78992712  0.04855648  0.69008539    -0.06000
N775        N  0.80593807  0.06837815  0.65274775    -0.61400
N776        N  0.79959715  0.92875134  0.73730297    -0.05300
N777        N  0.82333725  0.90370248  0.73159839    -0.58100
N778        N  0.78645952  0.93179401  0.69223076    -0.06700
N779        N  0.80247015  0.91047358  0.65520469    -0.61000
N780        N  0.80404491  0.04731784  0.73412200    -0.05600
N781        N  0.82876514  0.06740311  0.72790556    -0.58200
Mn782      Mn  0.75332919  0.99454903  0.68140440     1.20200
Mn783      Mn  0.79686183  0.99090963  0.79625021     1.10100
Cl784      Cl  0.74638868  0.99749153  0.78257958    -0.86100
C785        C  0.83012398  0.08028105  0.67730845     0.96200
C786        C  0.82554926  0.89272231  0.68054521     0.96000
N787        N  0.53868130  0.19153883  0.44066382    -0.06300
N788        N  0.55369615  0.15023541  0.42445859    -0.58400
N789        N  0.55453161  0.24607783  0.55249622    -0.06000
N790        N  0.57920887  0.24081127  0.57319515    -0.60500
N791        N  0.54078954  0.20100799  0.55467905    -0.05600
N792        N  0.55728733  0.16395506  0.57534498    -0.58400
N793        N  0.55345746  0.23514685  0.43604744    -0.05200
N794        N  0.57772591  0.22427892  0.41508222    -0.60900
C795        C  0.57797061  0.17155969  0.40846806     0.95900
C796        C  0.58107998  0.18993644  0.58750072     0.95700
N797        N  0.52593421  0.40306233  0.54288635    -0.06500
N798        N  0.52510229  0.43277763  0.58582934    -0.59000
N799        N  0.54566816  0.35668529  0.42307873    -0.04600
N800        N  0.55959115  0.35343520  0.37846242    -0.60200
N801        N  0.52459739  0.38943186  0.41905080    -0.06500
N802        N  0.52364735  0.40870342  0.37094967    -0.59200
N803        N  0.54630523  0.36877050  0.54564889    -0.04200
N804        N  0.55973308  0.37433663  0.59036315    -0.60300
Mn805      Mn  0.54995667  0.30272200  0.48937974     1.18400
C806        C  0.54652741  0.41490063  0.61521100     0.98000
C807        C  0.54594045  0.38655684  0.34611796     0.98600
N808        N  0.96996835  0.18882289  0.55909455    -0.06500
N809        N  0.95805301  0.14795133  0.58280384    -0.62800
N810        N  0.95014099  0.21761301  0.44135118    -0.05300
N811        N  0.92798892  0.20263290  0.41618397    -0.63500
N812        N  0.96884491  0.17919217  0.44316520    -0.06000
N813        N  0.95867336  0.13611141  0.41996286    -0.63100
N814        N  0.95235922  0.22910119  0.55903108    -0.04900
N815        N  0.92984650  0.21798856  0.58506318    -0.63800
Mn816      Mn  0.00455536  0.18824610  0.49959656     1.10700
C817        C  0.93296947  0.16741141  0.59901224     0.99200
C818        C  0.93330258  0.15234161  0.40260908     0.99300
N819        N  0.95955508  0.37897161  0.42471479    -0.06000
N820        N  0.95537217  0.40062859  0.37827173    -0.61400
N821        N  0.94597042  0.34737188  0.55114511    -0.05300
N822        N  0.93575696  0.34048501  0.59833648    -0.58100
N823        N  0.96340543  0.38681716  0.55020379    -0.06700
N824        N  0.96581424  0.40664364  0.59811208    -0.61000
N825        N  0.94339854  0.33802269  0.43013887    -0.05600
N826        N  0.92810434  0.33060426  0.38810847    -0.58200
Mn827      Mn  0.99311900  0.39247683  0.48350666     1.20200
Mn828      Mn  0.94806544  0.28387239  0.49497069     1.10100
Cl829      Cl  0.99919118  0.29061149  0.49142277    -0.86100
C830        C  0.93535830  0.37034685  0.35604526     0.96200
C831        C  0.94804909  0.37773343  0.62738382     0.96000
N832        N  0.53348102  0.58785770  0.44337933    -0.06300
N833        N  0.53138978  0.56657672  0.39625684    -0.58400
N834        N  0.55244089  0.63020911  0.56570202    -0.06000
N835        N  0.56538459  0.63555447  0.61068552    -0.60500
N836        N  0.53301232  0.59445303  0.56899768    -0.05600
N837        N  0.53226763  0.57521210  0.61708683    -0.58400
N838        N  0.55287367  0.62390216  0.44295525    -0.05200
N839        N  0.56437308  0.62730211  0.39617362    -0.60900
C840        C  0.55113177  0.59072602  0.36741872     0.95900
C841        C  0.55309287  0.60030530  0.64237375     0.95700
N842        N  0.53850869  0.79471515  0.55159823    -0.06500
N843        N  0.55315084  0.83690946  0.56520043    -0.59000
N844        N  0.55549220  0.74466773  0.43967533    -0.04600
N845        N  0.57896499  0.75202035  0.41510886    -0.60200
N846        N  0.53936673  0.78718280  0.43706352    -0.06500
N847        N  0.55287966  0.82512897  0.41181569    -0.59200
N848        N  0.55428547  0.75183873  0.55672825    -0.04200
N849        N  0.57851857  0.76397678  0.57599099    -0.60300
Mn850      Mn  0.55371121  0.68649473  0.50150860     1.18400
C851        C  0.57806806  0.81680673  0.58035282     0.98000
C852        C  0.57736894  0.80177587  0.39748934     0.98600
N853        N  0.96906805  0.59950181  0.56745679    -0.06500
N854        N  0.96931683  0.58197203  0.61607020    -0.62800
N855        N  0.95183578  0.62765588  0.44027082    -0.05300
N856        N  0.93963642  0.62829944  0.39426427    -0.63500
N857        N  0.96988640  0.58873645  0.44274154    -0.06000
N858        N  0.97013892  0.56209991  0.39792981    -0.63100
N859        N  0.95064634  0.63775968  0.56324372    -0.04900
N860        N  0.93812363  0.64699279  0.60842781    -0.63800
Mn861      Mn  0.00137197  0.58965366  0.50598609     1.10700
C862        C  0.94973959  0.61150634  0.64105174     0.99200
C863        C  0.95089200  0.58688870  0.36774376     0.99300
N864        N  0.96894402  0.79099486  0.43486707    -0.06000
N865        N  0.95647973  0.83051951  0.40950819    -0.61400
N866        N  0.95063780  0.75721911  0.55239445    -0.05300
N867        N  0.92767903  0.76892278  0.57743036    -0.58100
N868        N  0.96758924  0.79792262  0.55136756    -0.06700
N869        N  0.95522367  0.83916232  0.57487161    -0.61000
N870        N  0.95251644  0.74945425  0.43506735    -0.05600
N871        N  0.92994086  0.75896396  0.40852628    -0.58200
Mn872      Mn  0.00351060  0.79481913  0.49376523     1.20200
Mn873      Mn  0.95131983  0.69202597  0.49752855     1.10100
Cl874      Cl  0.00250576  0.69210813  0.49973972    -0.86100
C875        C  0.93232541  0.80910551  0.39241540     0.96200
C876        C  0.93042177  0.81965833  0.59146359     0.96000
C877        C  0.85313633  0.87824475  0.65569930    -0.05500
C878        C  0.87832511  0.88047207  0.68514135    -0.02600
C879        C  0.90423941  0.86892869  0.66145236     0.02400
C880        C  0.90554236  0.85001658  0.60991651    -0.05500
C881        C  0.88069948  0.84710299  0.58064791    -0.02600
C882        C  0.85501052  0.86327316  0.60247240     0.02400
C883        C  0.87824446  0.89201067  0.74073861     0.37000
C884        C  0.88104162  0.82322937  0.52898166     0.37000
C885        C  0.83044888  0.86177520  0.57012733     0.35400
C886        C  0.92957155  0.87324717  0.69135982     0.35400
N887        N  0.81103802  0.86079065  0.54381491    -0.39400
N888        N  0.94971595  0.87708271  0.71530066    -0.39400
N889        N  0.88090046  0.80241669  0.48865227    -0.38800
N890        N  0.87835313  0.90051151  0.78519762    -0.38800
C891        C  0.65534302  0.89083842  0.61811458    -0.05500
C892        C  0.65532140  0.84625472  0.58522172    -0.02600
C893        C  0.62990071  0.82527786  0.56808896     0.02400
C894        C  0.60428359  0.84704355  0.58665927    -0.05500
C895        C  0.60452993  0.89549234  0.61393794    -0.02600
C896        C  0.62994382  0.91808917  0.62831559     0.02400
C897        C  0.68126524  0.82025789  0.57156009     0.37000
C898        C  0.57874768  0.92057274  0.63016554     0.37000
C899        C  0.62978094  0.96871989  0.65558754     0.35400
C900        C  0.63039331  0.78159028  0.53098776     0.35400
N901        N  0.62964273  0.00897357  0.67747303    -0.39400
N902        N  0.63099505  0.74699317  0.50112295    -0.39400
N903        N  0.55820085  0.94056613  0.64324129    -0.38800
N904        N  0.70199015  0.79957600  0.56071197    -0.38800
C905        C  0.85688712  0.09608015  0.65198622    -0.05500
C906        C  0.85694942  0.12977604  0.60836795    -0.02600
C907        C  0.88216260  0.14873146  0.58816387     0.02400
C908        C  0.90783855  0.13625309  0.61273973    -0.05500
C909        C  0.90807622  0.09990784  0.65396425    -0.02600
C910        C  0.88287496  0.07948194  0.67324547     0.02400
C911        C  0.83102572  0.14817975  0.58611157     0.37000
C912        C  0.93414393  0.08550152  0.67830942     0.37000
C913        C  0.88419062  0.04222724  0.71599773     0.35400
C914        C  0.88139008  0.18100969  0.54135992     0.35400
N915        N  0.88567952  0.01327721  0.75075180    -0.39400
N916        N  0.88063090  0.20644857  0.50390190    -0.39400
N917        N  0.95489380  0.07396165  0.69779850    -0.38800
N918        N  0.81043440  0.16335093  0.56845745    -0.38800
C919        C  0.60902801  0.16655840  0.60030509    -0.05500
C920        C  0.62775072  0.19786930  0.62946984    -0.02600
C921        C  0.65591067  0.18311332  0.63365388     0.02400
C922        C  0.66509847  0.13310871  0.61597852    -0.05500
C923        C  0.64694293  0.10217875  0.58551340    -0.02600
C924        C  0.61927984  0.11947976  0.57635205     0.02400
C925        C  0.61738986  0.24270787  0.65955343     0.37000
C926        C  0.65655079  0.05148921  0.56537000     0.37000
C927        C  0.60163088  0.08882327  0.54233841     0.35400
C928        C  0.67560472  0.21832318  0.65819339     0.35400
N929        N  0.58760361  0.06433643  0.51497744    -0.39400
N930        N  0.69172787  0.24601964  0.67708913    -0.39400
N931        N  0.66434342  0.01091156  0.54968441    -0.38800
N932        N  0.60839450  0.27700162  0.68470006    -0.38800
C933        C  0.90687755  0.83686488  0.37361313    -0.05500
C934        C  0.89504525  0.88030188  0.40119563    -0.02600
C935        C  0.86654765  0.89326424  0.39458901     0.02400
C936        C  0.84959115  0.86167098  0.36240310    -0.05500
C937        C  0.86109652  0.81608336  0.33920401    -0.02600
C938        C  0.88980434  0.80731103  0.34000747     0.02400
C939        C  0.91172070  0.91005168  0.43771792     0.37000
C940        C  0.84265538  0.77686032  0.31757207     0.37000
C941        C  0.90245145  0.76974032  0.30425815     0.35400
C942        C  0.85405902  0.93593131  0.42432446     0.35400
N943        N  0.91377831  0.74201291  0.27503249    -0.39400
N944        N  0.84379103  0.96864778  0.44969710    -0.39400
N945        N  0.82701781  0.74598011  0.30252331    -0.38800
N946        N  0.92509458  0.93360069  0.46698633    -0.38800
C947        C  0.65808746  0.86102827  0.35556631    -0.05500
C948        C  0.64172926  0.88883216  0.39277986    -0.02600
C949        C  0.61450177  0.87186155  0.40467079     0.02400
C950        C  0.60307099  0.82779607  0.37825779    -0.05500
C951        C  0.61948225  0.80039509  0.34077852    -0.02600
C952        C  0.64682271  0.81634189  0.33020203     0.02400
C953        C  0.65231900  0.93675423  0.41649545     0.37000
C954        C  0.60787396  0.75625967  0.31179633     0.37000
C955        C  0.66332708  0.78744785  0.29176506     0.35400
C956        C  0.59849658  0.89931518  0.44461624     0.35400
N957        N  0.67659399  0.76464670  0.26119153    -0.39400
N958        N  0.58569719  0.92126870  0.47645289    -0.39400
N959        N  0.59848097  0.72135404  0.28855809    -0.38800
N960        N  0.66077869  0.97532589  0.43480668    -0.38800
C961        C  0.85418872  0.10872352  0.34868781    -0.05500
C962        C  0.87468940  0.12855883  0.31404497    -0.02600
C963        C  0.90258014  0.13176441  0.32934999     0.02400
C964        C  0.91044110  0.12027735  0.38080538    -0.05500
C965        C  0.89022394  0.10054026  0.41556701    -0.02600
C966        C  0.86201957  0.09721812  0.40048089     0.02400
C967        C  0.86703029  0.14828265  0.26279191     0.37000
C968        C  0.89885210  0.08163044  0.46625918     0.37000
C969        C  0.84098612  0.08618797  0.43914094     0.35400
C970        C  0.92351749  0.14607927  0.29141171     0.35400
N971        N  0.82405654  0.07870511  0.47023603    -0.39400
N972        N  0.93996129  0.15598949  0.26010958    -0.39400
N973        N  0.90591557  0.06495548  0.50609454    -0.38800
N974        N  0.86098315  0.16414495  0.22203133    -0.38800
C975        C  0.65584003  0.09940966  0.36491810    -0.05500
C976        C  0.63059193  0.07487582  0.35033801    -0.02600
C977        C  0.60496455  0.09626505  0.36713004     0.02400
C978        C  0.60434405  0.14171522  0.39912561    -0.05500
C979        C  0.62964325  0.16098500  0.41995944    -0.02600
C980        C  0.65527019  0.14014289  0.40241100     0.02400
C981        C  0.63072395  0.02785154  0.31739468     0.37000
C982        C  0.62959413  0.20237836  0.45949618     0.37000
C983        C  0.68099828  0.16252002  0.42079059     0.35400
C984        C  0.57931432  0.07298369  0.34932383     0.35400
N985        N  0.70157942  0.18019645  0.43542487    -0.39400
N986        N  0.55884626  0.05433862  0.33528264    -0.39400
N987        N  0.62974453  0.23545711  0.49097750    -0.38800
N988        N  0.63046942  0.99039609  0.29110845    -0.38800
C989        C  0.81053903  0.66617475  0.12372196    -0.05500
C990        C  0.79280399  0.69085223  0.08746500    -0.02600
C991        C  0.78906578  0.74678121  0.08802637     0.02400
C992        C  0.80457983  0.77926905  0.12253221    -0.05500
C993        C  0.82224545  0.75316052  0.15886619    -0.02600
C994        C  0.82238107  0.69742800  0.16290825     0.02400
C995        C  0.78001415  0.65902313  0.04715955     0.37000
C996        C  0.84324189  0.78199653  0.18709467     0.37000
C997        C  0.83567117  0.67106061  0.20634235     0.35400
C998        C  0.77113730  0.77030323  0.04960776     0.35400
N999        N  0.84549263  0.64888297  0.24119027    -0.39400
N1000       N  0.75721295  0.78852327  0.01777375    -0.39400
N1001       N  0.86065190  0.80513180  0.20777475    -0.38800
N1002       N  0.77005042  0.63325546  0.01497296    -0.38800
C1003       C  0.82088368  0.28484997  0.09502232    -0.05500
C1004       C  0.80563099  0.26811316  0.13884588    -0.02600
C1005       C  0.80196221  0.21319206  0.14806783     0.02400
C1006       C  0.81215823  0.17499824  0.11206684    -0.05500
C1007       C  0.82765536  0.19119421  0.06891446    -0.02600
C1008       C  0.83173242  0.24544845  0.05984864     0.02400
C1009       C  0.79493371  0.30708676  0.17555145     0.37000
C1010       C  0.83927532  0.15158841  0.03329637     0.37000
C1011       C  0.84829039  0.25949126  0.01468166     0.35400
C1012       C  0.78982688  0.19539195  0.19657676     0.35400
N1013       N  0.86222584  0.26867941  0.97917293    -0.39400
N1014       N  0.78117315  0.18005913  0.23578175    -0.39400
N1015       N  0.84814347  0.12015157  0.00452267    -0.38800
N1016       N  0.78627741  0.33834080  0.20472301    -0.38800
C1017       C  0.80958287  0.69345095  0.92375563    -0.05500
C1018       C  0.82008955  0.73544909  0.95532465    -0.02600
C1019       C  0.81137164  0.78846819  0.94763537     0.02400
C1020       C  0.79173737  0.80078808  0.90912694    -0.05500
C1021       C  0.77969156  0.75899255  0.88016714    -0.02600
C1022       C  0.78852176  0.70554914  0.88753429     0.02400
C1023       C  0.84056396  0.72508549  0.99546566     0.37000
C1024       C  0.75925166  0.77135553  0.84071248     0.37000
C1025       C  0.77745342  0.66363964  0.85522838     0.35400
C1026       C  0.82302305  0.83087592  0.97894278     0.35400
N1027       N  0.76877520  0.62999129  0.82930192    -0.39400
N1028       N  0.83221954  0.86470470  0.00398063    -0.39400
N1029       N  0.74308696  0.78120325  0.80895028    -0.38800
N1030       N  0.85707889  0.71806178  0.02730773    -0.38800
C1031       C  0.80494273  0.30753853  0.88520898    -0.05500
C1032       C  0.80679647  0.28048812  0.83687339    -0.02600
C1033       C  0.80086931  0.22553785  0.83352852     0.02400
C1034       C  0.79475322  0.19627781  0.87920345    -0.05500
C1035       C  0.79085107  0.22444867  0.92638384    -0.02600
C1036       C  0.79433139  0.27997083  0.92854099     0.02400
C1037       C  0.81358758  0.30967003  0.79009028     0.37000
C1038       C  0.78420409  0.19575195  0.97327675     0.37000
C1039       C  0.78648472  0.30887500  0.97521877     0.35400
C1040       C  0.79982438  0.19996446  0.78277165     0.35400
N1041       N  0.77902884  0.33168285  0.01199163    -0.39400
N1042       N  0.79846639  0.18007056  0.74207220    -0.39400
N1043       N  0.77822462  0.17141289  0.00965244    -0.38800
N1044       N  0.81840093  0.33238148  0.75203315    -0.38800
C1045       C  0.94017906  0.60056551  0.80875454    -0.05500
C1046       C  0.93123810  0.55923266  0.77584030    -0.02600
C1047       C  0.93405521  0.56306224  0.72109929     0.02400
C1048       C  0.94438891  0.60964987  0.69855808    -0.05500
C1049       C  0.94854983  0.65446418  0.73107355    -0.02600
C1050       C  0.94697052  0.64961387  0.78616352     0.02400
C1051       C  0.91515935  0.51742138  0.79879590     0.37000
C1052       C  0.95289725  0.70603450  0.70811690     0.37000
C1053       C  0.95083126  0.69548816  0.81944073     0.35400
C1054       C  0.92352425  0.52211110  0.68710372     0.35400
N1055       N  0.95343755  0.73227246  0.84612360    -0.39400
N1056       N  0.91492870  0.49149375  0.65777466    -0.39400
N1057       N  0.95573821  0.74760951  0.69013745    -0.38800
N1058       N  0.90122387  0.48760055  0.82020837    -0.38800
C1059       C  0.94458637  0.57801204  0.19673045    -0.05500
C1060       C  0.92600026  0.60946984  0.22716625    -0.02600
C1061       C  0.92578963  0.60623478  0.28241328     0.02400
C1062       C  0.94726866  0.57922552  0.30928763    -0.05500
C1063       C  0.96676871  0.55021768  0.27883313    -0.02600
C1064       C  0.96489223  0.54802419  0.22363029     0.02400
C1065       C  0.90867665  0.64894529  0.20213255     0.37000
C1066       C  0.98983974  0.52399973  0.30333574     0.37000
C1067       C  0.98519923  0.51686187  0.19488032     0.35400
C1068       C  0.90274413  0.62943234  0.31127610     0.35400
N1069       N  0.00158047  0.49209621  0.17226029    -0.39400
N1070       N  0.88437727  0.64731498  0.33480872    -0.39400
N1071       N  0.00875849  0.50286453  0.32143768    -0.38800
N1072       N  0.89607873  0.68153989  0.18089018    -0.38800
C1073       C  0.94094271  0.38180600  0.79612497    -0.05500
C1074       C  0.91700866  0.38112382  0.76415042    -0.02600
C1075       C  0.91947913  0.38046465  0.70928167     0.02400
C1076       C  0.94581309  0.37830794  0.68550417    -0.05500
C1077       C  0.96913809  0.36849541  0.71732074    -0.02600
C1078       C  0.96691007  0.37242628  0.77241842     0.02400
C1079       C  0.88956480  0.38146086  0.78687732     0.37000
C1080       C  0.99399914  0.34615500  0.69400916     0.37000
C1081       C  0.99059004  0.36097116  0.80510849     0.35400
C1082       C  0.89469644  0.38108929  0.67730368     0.35400
N1083       N  0.50916865  0.35117140  0.83184835    -0.39400
N1084       N  0.87493270  0.38158034  0.65191668    -0.39400
N1085       N  0.01342601  0.32622606  0.67573963    -0.38800
N1086       N  0.86744432  0.38258275  0.80411473    -0.38800
C1087       C  0.93085131  0.37816657  0.18760507    -0.05500
C1088       C  0.91793596  0.41807638  0.21847626    -0.02600
C1089       C  0.91739210  0.41398997  0.27371387     0.02400
C1090       C  0.92931172  0.36951398  0.29860647    -0.05500
C1091       C  0.93953554  0.32700111  0.26733956    -0.02600
C1092       C  0.93962529  0.33084393  0.21213776     0.02400
C1093       C  0.90360790  0.46157497  0.19317193     0.37000
C1094       C  0.95330684  0.28244984  0.29206269     0.37000
C1095       C  0.94926792  0.28633141  0.18074146     0.35400
C1096       C  0.90484759  0.45572763  0.30508554     0.35400
N1097       N  0.95676788  0.25059515  0.15576815    -0.39400
N1098       N  0.89465920  0.48880548  0.33025578    -0.39400
N1099       N  0.96486739  0.24802500  0.31259421    -0.38800
N1100       N  0.89155755  0.49548291  0.17279024    -0.38800
C1101       C  0.68016676  0.69282276  0.88149121    -0.05500
C1102       C  0.69300121  0.72333199  0.92051265    -0.02600
C1103       C  0.69403350  0.77914686  0.91661698     0.02400
C1104       C  0.68526673  0.80550168  0.87070551    -0.05500
C1105       C  0.67451306  0.77383768  0.82938010    -0.02600
C1106       C  0.67154113  0.71825590  0.83540162     0.02400
C1107       C  0.70428331  0.69701961  0.96580529     0.37000
C1108       C  0.66554797  0.79748889  0.78086047     0.37000
C1109       C  0.65898317  0.68685732  0.79435206     0.35400
C1110       C  0.70165918  0.80996652  0.96188599     0.35400
N1111       N  0.64910642  0.66179905  0.76149409    -0.39400
N1112       N  0.70699386  0.83719316  0.99672703    -0.39400
N1113       N  0.65802356  0.81498663  0.74168520    -0.38800
N1114       N  0.71378017  0.67539007  0.00121967    -0.38800
C1115       C  0.68535763  0.31972256  0.85959589    -0.05500
C1116       C  0.67475069  0.28925681  0.81809828    -0.02600
C1117       C  0.67576457  0.23322298  0.81933013     0.02400
C1118       C  0.69101862  0.20620536  0.85857958    -0.05500
C1119       C  0.70423351  0.23765475  0.89704854    -0.02600
C1120       C  0.70149004  0.29368395  0.89754020     0.02400
C1121       C  0.66283101  0.31583080  0.77348143     0.37000
C1122       C  0.71702962  0.21233760  0.94097370     0.37000
C1123       C  0.71287933  0.32410992  0.94037894     0.35400
C1124       C  0.65821295  0.20422737  0.78367226     0.35400
N1125       N  0.72162740  0.34874117  0.97462811    -0.39400
N1126       N  0.64358108  0.18059653  0.75675303    -0.39400
N1127       N  0.72585476  0.19101092  0.97701907    -0.38800
N1128       N  0.65430466  0.33603936  0.73637658    -0.38800
C1129       C  0.69539727  0.79397185  0.11662156    -0.05500
C1130       C  0.67205637  0.78195648  0.08674886    -0.02600
C1131       C  0.66516159  0.72889615  0.07671707     0.02400
C1132       C  0.68051594  0.68623610  0.09969848    -0.05500
C1133       C  0.70417713  0.69855798  0.12948696    -0.02600
C1134       C  0.71147351  0.75235797  0.13816873     0.02400
C1135       C  0.65479479  0.82467505  0.06651672     0.37000
C1136       C  0.72063165  0.65634117  0.15205465     0.37000
C1137       C  0.73437805  0.76517446  0.17217603     0.35400
C1138       C  0.64226111  0.71928928  0.04139506     0.35400
N1139       N  0.75233451  0.77567669  0.19998720    -0.39400
N1140       N  0.62375486  0.71272026  0.01368771    -0.39400
N1141       N  0.73404778  0.62290374  0.17009353    -0.38800
N1142       N  0.64105067  0.85867581  0.05043714    -0.38800
C1143       C  0.68310056  0.29243488  0.07873643    -0.05500
C1144       C  0.69786784  0.28128063  0.12492403    -0.02600
C1145       C  0.70481693  0.22798376  0.13803345     0.02400
C1146       C  0.69850495  0.18547149  0.10373712    -0.05500
C1147       C  0.68320226  0.19637135  0.05844873    -0.02600
C1148       C  0.67573469  0.24906750  0.04574027     0.02400
C1149       C  0.70383736  0.32400002  0.16103056     0.37000
C1150       C  0.67378043  0.15266831  0.02610266     0.37000
C1151       C  0.65910008  0.25772462  0.99933308     0.35400
C1152       C  0.71577177  0.21656953  0.18932651     0.35400
N1153       N  0.64543551  0.26405902  0.96288614    -0.39400
N1154       N  0.72336964  0.20798712  0.23119477    -0.39400
N1155       N  0.66640116  0.11782823  0.00019952    -0.38800
N1156       N  0.70851979  0.35805565  0.19009817    -0.38800
C1157       C  0.55510286  0.60450992  0.70036404    -0.05500
C1158       C  0.53928937  0.64361602  0.72709973    -0.02600
C1159       C  0.54027718  0.64752821  0.78219201     0.02400
C1160       C  0.55714951  0.61245369  0.81077790    -0.05500
C1161       C  0.57560980  0.57823171  0.78367838    -0.02600
C1162       C  0.57475046  0.57457500  0.72855300     0.02400
C1163       C  0.52419139  0.68279143  0.69709065     0.37000
C1164       C  0.59645896  0.54937446  0.81291706     0.37000
C1165       C  0.59547593  0.54370804  0.70067159     0.35400
C1166       C  0.52593282  0.69023751  0.80920171     0.35400
N1167       N  0.61253653  0.52027292  0.67841674    -0.39400
N1168       N  0.51529210  0.72523803  0.83092786    -0.39400
N1169       N  0.61306920  0.52793104  0.83772963    -0.38800
N1170       N  0.51331836  0.71438927  0.67157421    -0.38800
C1171       C  0.55412688  0.58478727  0.19812567    -0.05500
C1172       C  0.57473985  0.55900059  0.22803005    -0.02600
C1173       C  0.57392948  0.56128483  0.28322557     0.02400
C1174       C  0.55247398  0.58927190  0.30911224    -0.05500
C1175       C  0.53274688  0.61761865  0.27909279    -0.02600
C1176       C  0.53335822  0.61472794  0.22383494     0.02400
C1177       C  0.59723817  0.53125923  0.20168758     0.37000
C1178       C  0.51234597  0.65118330  0.30503184     0.37000
C1179       C  0.51312509  0.64370520  0.19321815     0.35400
C1180       C  0.59573211  0.53645012  0.31342343     0.35400
N1181       N  0.49705851  0.66663816  0.16841922    -0.39400
N1182       N  0.61333119  0.51730756  0.33759762    -0.39400
N1183       N  0.49618332  0.67835373  0.32557143    -0.38800
N1184       N  0.61524111  0.50998898  0.17997884    -0.38800
C1185       C  0.55670576  0.43555461  0.78365704    -0.05500
C1186       C  0.53302728  0.45646636  0.75859736    -0.02600
C1187       C  0.53043210  0.45338975  0.70351872     0.02400
C1188       C  0.55130564  0.42892285  0.67220972    -0.05500
C1189       C  0.57655566  0.41538292  0.69685624    -0.02600
C1190       C  0.57948913  0.42074610  0.75168514     0.02400
C1191       C  0.51128112  0.48236377  0.78875619     0.37000
C1192       C  0.60036574  0.39943598  0.66570753     0.37000
C1193       C  0.60692722  0.41970971  0.77384452     0.35400
C1194       C  0.50548312  0.47387750  0.68034142     0.35400
N1195       N  0.62890549  0.42223601  0.79130046    -0.39400
N1196       N  0.98503166  0.49005566  0.66329504    -0.39400
N1197       N  0.61945840  0.38724146  0.64085656    -0.38800
N1198       N  0.99386356  0.50356896  0.81215186    -0.38800
C1199       C  0.55147445  0.38826641  0.28794174    -0.05500
C1200       C  0.52934283  0.38695923  0.25219999    -0.02600
C1201       C  0.53389828  0.38120162  0.19836794     0.02400
C1202       C  0.56051917  0.38492668  0.17756887    -0.05500
C1203       C  0.58329089  0.38562844  0.21217101    -0.02600
C1204       C  0.57878286  0.38618768  0.26725893     0.02400
C1205       C  0.50179076  0.39829410  0.26871821     0.37000
C1206       C  0.61120935  0.38616254  0.19162461     0.37000
C1207       C  0.60225017  0.38778621  0.30222325     0.35400
C1208       C  0.51119605  0.36980411  0.16345806     0.35400
N1209       N  0.62102907  0.38915815  0.33013127    -0.39400
N1210       N  0.99430426  0.35966055  0.13332951    -0.39400
N1211       N  0.63366236  0.38650338  0.17580841    -0.38800
N1212       N  0.97987183  0.41262023  0.27937865    -0.38800
loop_ 
_geom_bond_atom_site_label_1 
_geom_bond_atom_site_label_2 
_geom_bond_distance 
_geom_bond_site_symmetry_2 
_ccdc_geom_bond_type 
N1            N2   1.339       .  A
N1            N7   1.320       .  A
N1          Mn30   2.294   1_554  S
N2            C9   1.372       .  A
N3            N5   1.321       .  A
N3            N4   1.314       .  A
N3          Mn19   2.177       .  S
N4           C10   1.341       .  A
N5            N6   1.332       .  A
N5          Mn30   2.265       .  S
N6           C10   1.366       .  A
N7            N8   1.309       .  A
N7          Mn19   2.167   1_554  S
N8            C9   1.336       .  A
C9          C537   1.507       .  S
C10         C509   1.496       .  S
N11          N17   1.308       .  A
N11          N12   1.328       .  A
N11         Mn41   2.212       .  S
N12          C20   1.353       .  A
N13          N14   1.329       .  A
N13          N15   1.308       .  A
N13         Mn19   2.182   1_554  S
N14          C21   1.347       .  A
N15          N16   1.323       .  A
N15         Mn41   2.201   1_554  S
N16          C21   1.352       .  A
N17          N18   1.327       .  A
N17         Mn19   2.202       .  S
N18          C20   1.352       .  A
Mn19        Cl43   2.456       .  S
C20         C579   1.516       .  S
C21         C596   1.496       .  S
N22          N23   1.333       .  A
N22          N28   1.320       .  A
N22         Mn30   2.259       .  S
N23          C31   1.367       .  A
N24          N26   1.321       .  A
N24          N25   1.309       .  A
N24         Mn42   2.185       .  S
N25          C32   1.336       .  A
N26          N27   1.336       .  A
N26         Mn30   2.279   1_554  S
N27          C32   1.368       .  A
N28          N29   1.312       .  A
N28         Mn42   2.185   1_556  S
N29          C31   1.338       .  A
Mn30        Cl43   2.620       .  S
C31         C495   1.490       .  S
C32         C526   1.506       .  S
N33          N34   1.326       .  A
N33          N39   1.308       .  A
N33         Mn41   2.212   1_554  S
N34          C44   1.356       .  A
N35          N36   1.324       .  A
N35          N37   1.311       .  A
N35         Mn42   2.200   1_556  S
N36          C45   1.353       .  A
N37          N38   1.323       .  A
N37         Mn41   2.205       .  S
N38          C45   1.352       .  A
N39          N40   1.320       .  A
N39         Mn42   2.180       .  S
N40          C44   1.349       .  A
Mn41        Cl43   2.605       .  S
Mn42        Cl43   2.450   1_554  S
C44         C565   1.491       .  S
C45         C554   1.489       .  S
N46          N47   1.329       .  A
N46          N52   1.311       .  A
N46         Mn75   2.233   1_554  S
N47          C54   1.359       .  A
N48          N50   1.311       .  A
N48          N49   1.318       .  A
N48         Mn64   2.164       .  S
N49          C55   1.347       .  A
N50          N51   1.329       .  A
N50         Mn75   2.248       .  S
N51          C55   1.363       .  A
N52          N53   1.323       .  A
N52         Mn64   2.175   1_554  S
N53          C54   1.343       .  A
C54         C481   1.501       .  S
C55         C467   1.500       .  S
N56          N62   1.322       .  A
N56          N57   1.332       .  A
N56         Mn86   2.251   1_556  S
N57          C65   1.363       .  A
N58          N59   1.304       .  A
N58          N60   1.314       .  A
N58         Mn64   2.141   1_554  S
N59          C66   1.329       .  A
N60          N61   1.336       .  A
N60         Mn86   2.282       .  S
N61          C66   1.373       .  A
N62          N63   1.317       .  A
N62         Mn64   2.211       .  S
N63          C65   1.343       .  A
Mn64        Cl88   2.465       .  S
C65         C425   1.497       .  S
C66         C397   1.498       .  S
N67          N68   1.324       .  A
N67          N73   1.314       .  A
N67         Mn75   2.219       .  S
N68          C76   1.357       .  A
N69          N71   1.308       .  A
N69          N70   1.320       .  A
N69         Mn87   2.184       .  S
N70          C77   1.352       .  A
N71          N72   1.325       .  A
N71         Mn75   2.211   1_554  S
N72          C77   1.359       .  A
N73          N74   1.324       .  A
N73         Mn87   2.204   1_556  S
N74          C76   1.352       .  A
Mn75        Cl88   2.573       .  S
C76         C439   1.496       .  S
C77         C453   1.520       .  S
N78          N79   1.330       .  A
N78          N84   1.321       .  A
N78         Mn86   2.233       .  S
N79          C89   1.360       .  A
N80          N81   1.312       .  A
N80          N82   1.324       .  A
N80         Mn87   2.174   1_556  S
N81          C90   1.337       .  A
N82          N83   1.337       .  A
N82         Mn86   2.289   1_556  S
N83          C90   1.369       .  A
N84          N85   1.312       .  A
N84         Mn87   2.194       .  S
N85          C89   1.342       .  A
Mn86        Cl88   2.631   1_554  S
Mn87        Cl88   2.466   1_554  S
C89         C383   1.489       .  S
C90         C411   1.509       .  S
N91          N92   1.331       .  A
N91          N97   1.322       .  A
N91        Mn120   2.255   1_545  S
N92          C99   1.362       .  A
N93          N95   1.321       .  A
N93          N94   1.310       .  A
N93        Mn109   2.165       .  S
N94         C100   1.336       .  A
N95          N96   1.334       .  A
N95        Mn120   2.270       .  S
N96         C100   1.367       .  A
N97          N98   1.311       .  A
N97        Mn109   2.160   1_545  S
N98          C99   1.336       .  A
C99         C369   1.489       .  S
C100        C341   1.489       .  S
N101        N107   1.311       .  A
N101        N102   1.322       .  A
N101       Mn131   2.190       .  S
N102        C110   1.350       .  A
N103        N104   1.323       .  A
N103        N105   1.312       .  A
N103       Mn109   2.189   1_545  S
N104        C111   1.350       .  A
N105        N106   1.329       .  A
N105       Mn131   2.236   1_545  S
N106        C111   1.359       .  A
N107        N108   1.323       .  A
N107       Mn109   2.190       .  S
N108        C110   1.349       .  A
Mn109      Cl133   2.464       .  S
C110        C523   1.484       .  S
C111        C540   1.500       .  S
N112        N113   1.333       .  A
N112        N118   1.321       .  A
N112       Mn120   2.255       .  S
N113        C121   1.363       .  A
N114        N116   1.319       .  A
N114        N115   1.304       .  A
N114       Mn132   2.150   1_545  S
N115        C122   1.335       .  A
N116        N117   1.337       .  A
N116       Mn120   2.276   1_545  S
N117        C122   1.372       .  A
N118        N119   1.311       .  A
N118       Mn132   2.168       .  S
N119        C121   1.338       .  A
Mn120      Cl133   2.609       .  S
C121        C330   1.487       .  S
C122        C355   1.504       .  S
N123        N124   1.322       .  A
N123        N129   1.311       .  A
N123       Mn131   2.195   1_545  S
N124        C134   1.353       .  A
N125        N126   1.316       .  A
N125        N127   1.310       .  A
N125       Mn132   2.180       .  S
N126        C135   1.350       .  A
N127        N128   1.330       .  A
N127       Mn131   2.230       .  S
N128        C135   1.362       .  A
N129        N130   1.320       .  A
N129       Mn132   2.173   1_545  S
N130        C134   1.345       .  A
Mn131      Cl133   2.601       .  S
Mn132      Cl133   2.461       .  S
C134        C400   1.480       .  S
C135        C386   1.520       .  S
N136        N137   1.324       .  A
N136        N142   1.311       .  A
N136       Mn165   2.219       .  S
N137        C144   1.360       .  A
N138        N140   1.312       .  A
N138        N139   1.322       .  A
N138       Mn154   2.188   1_565  S
N139        C145   1.353       .  A
N140        N141   1.320       .  A
N140       Mn165   2.210   1_565  S
N141        C145   1.357       .  A
N142        N143   1.317       .  A
N142       Mn154   2.181       .  S
N143        C144   1.351       .  A
C144        C512   1.521       .  S
C145        C498   1.518       .  S
N146        N152   1.320       .  A
N146        N147   1.332       .  A
N146       Mn176   2.255       .  S
N147        C155   1.364       .  A
N148        N149   1.310       .  A
N148        N150   1.321       .  A
N148       Mn154   2.172       .  S
N149        C156   1.338       .  A
N150        N151   1.334       .  A
N150       Mn176   2.264   1_545  S
N151        C156   1.365       .  A
N152        N153   1.305       .  A
N152       Mn154   2.150   1_565  S
N153        C155   1.334       .  A
Mn154      Cl178   2.470   1_545  S
C155        C285   1.487       .  S
C156        C316   1.489       .  S
N157        N158   1.328       .  A
N157        N163   1.313       .  A
N157       Mn165   2.217   1_565  S
N158        C166   1.356       .  A
N159        N161   1.315       .  A
N159        N160   1.324       .  A
N159       Mn177   2.196   1_545  S
N160        C167   1.351       .  A
N161        N162   1.323       .  A
N161       Mn165   2.214       .  S
N162        C167   1.356       .  A
N163        N164   1.321       .  A
N163       Mn177   2.199       .  S
N164        C166   1.350       .  A
Mn165      Cl178   2.583   1_545  S
C166        C414   1.495       .  S
C167        C428   1.505       .  S
N168        N169   1.331       .  A
N168        N174   1.321       .  A
N168       Mn176   2.255   1_545  S
N169        C179   1.365       .  A
N170        N171   1.312       .  A
N170        N172   1.322       .  A
N170       Mn177   2.174       .  S
N171        C180   1.339       .  A
N172        N173   1.330       .  A
N172       Mn176   2.259       .  S
N173        C180   1.366       .  A
N174        N175   1.312       .  A
N174       Mn177   2.170   1_545  S
N175        C179   1.339       .  A
Mn176      Cl178   2.613       .  S
Mn177      Cl178   2.470       .  S
C179        C299   1.504       .  S
C180        C271   1.516       .  S
N181        N182   1.328       .  A
N181        N187   1.323       .  A
N181       Mn816   2.235       .  S
N182        C189   1.359       .  A
N183        N185   1.324       .  A
N183        N184   1.313       .  A
N183       Mn199   2.174       .  S
N184        C190   1.339       .  A
N185        N186   1.335       .  A
N185       Mn816   2.277       .  S
N186        C190   1.366       .  A
N187        N188   1.314       .  A
N187       Mn199   2.184       .  S
N188        C189   1.340       .  A
C189        C372   1.492       .  S
C190        C313   1.507       .  S
N191        N197   1.307       .  A
N191        N192   1.328       .  A
N191       Mn827   2.219   1_455  S
N192        C200   1.357       .  A
N193        N194   1.326       .  A
N193        N195   1.310       .  A
N193       Mn199   2.191       .  S
N194        C201   1.349       .  A
N195        N196   1.328       .  A
N195       Mn827   2.242   1_455  S
N196        C201   1.363       .  A
N197        N198   1.326       .  A
N197       Mn199   2.203       .  S
N198        C200   1.355       .  A
Mn199      Cl829   2.477   1_455  S
C200        C582   1.519       .  S
C201        C593   1.514       .  S
N202        N203   1.334       .  A
N202        N208   1.319       .  A
N202       Mn210   2.258       .  S
N203        C211   1.366       .  A
N204        N206   1.320       .  A
N204        N205   1.310       .  A
N204       Mn222   2.159       .  S
N205        C212   1.336       .  A
N206        N207   1.335       .  A
N206       Mn210   2.268       .  S
N207        C212   1.366       .  A
N208        N209   1.308       .  A
N208       Mn222   2.160       .  S
N209        C211   1.334       .  A
Mn210       N787   2.235       .  S
Mn210       N791   2.277       .  S
Mn210      Cl223   2.602       .  S
C211        C302   1.495       .  S
C212        C358   1.485       .  S
N213        N214   1.327       .  A
N213        N219   1.309       .  A
N213       Mn221   2.245       .  S
N214        C224   1.363       .  A
N215        N216   1.317       .  A
N215        N217   1.311       .  A
N215       Mn222   2.149       .  S
N216        C225   1.340       .  A
N217        N218   1.329       .  A
N217       Mn221   2.234       .  S
N218        C225   1.358       .  A
N219        N220   1.322       .  A
N219       Mn222   2.167       .  S
N220        C224   1.348       .  A
Mn221       N797   2.219       .  S
Mn221       N801   2.242       .  S
Mn221      Cl223   2.592       .  S
Mn222      Cl223   2.480       .  S
Cl223      Mn805   2.477       .  S
C224        C484   1.501       .  S
C225        C470   1.492       .  S
N226        N227   1.323       .  A
N226        N232   1.313       .  A
N226       Mn861   2.228       .  S
N227        C234   1.356       .  A
N228        N230   1.312       .  A
N228        N229   1.320       .  A
N228       Mn244   2.179       .  S
N229        C235   1.348       .  A
N230        N231   1.327       .  A
N230       Mn861   2.231       .  S
N231        C235   1.359       .  A
N232        N233   1.323       .  A
N232       Mn244   2.173       .  S
N233        C234   1.346       .  A
C234        C568   1.495       .  S
C235        C551   1.492       .  S
N236        N242   1.324       .  A
N236        N237   1.330       .  A
N236       Mn872   2.253       .  S
N237        C245   1.361       .  A
N238        N239   1.311       .  A
N238        N240   1.322       .  A
N238       Mn244   2.167       .  S
N239        C246   1.338       .  A
N240        N241   1.333       .  A
N240       Mn872   2.264       .  S
N241        C246   1.365       .  A
N242        N243   1.311       .  A
N242       Mn244   2.167       .  S
N243        C245   1.337       .  A
Mn244      Cl874   2.479       .  S
C245        C288   1.495       .  S
C246        C344   1.494       .  S
N247        N248   1.324       .  A
N247        N253   1.312       .  A
N247       Mn255   2.225       .  S
N248        C256   1.355       .  A
N249        N251   1.309       .  A
N249        N250   1.320       .  A
N249       Mn267   2.182       .  S
N250        C257   1.352       .  A
N251        N252   1.327       .  A
N251       Mn255   2.227       .  S
N252        C257   1.361       .  A
N253        N254   1.323       .  A
N253       Mn267   2.175       .  S
N254        C256   1.348       .  A
Mn255       N832   2.228       .  S
Mn255       N836   2.231       .  S
Mn255      Cl268   2.591       .  S
C256        C442   1.496       .  S
C257        C456   1.520       .  S
N258        N259   1.333       .  A
N258        N264   1.321       .  A
N258       Mn266   2.258       .  S
N259        C269   1.364       .  A
N260        N261   1.310       .  A
N260        N262   1.320       .  A
N260       Mn267   2.158       .  S
N261        C270   1.336       .  A
N262        N263   1.334       .  A
N262       Mn266   2.275       .  S
N263        C270   1.368       .  A
N264        N265   1.309       .  A
N264       Mn267   2.165       .  S
N265        C269   1.338       .  A
Mn266       N842   2.253       .  S
Mn266       N846   2.264       .  S
Mn266      Cl268   2.597       .  S
Mn267      Cl268   2.475       .  S
Cl268      Mn850   2.479       .  S
C269        C327   1.492       .  S
C270        C274   1.493       .  S
C271        C272   1.436       .  A
C271        C276   1.415       .  A
C272        C273   1.417       .  A
C272        C277   1.452       .  S
C273        C274   1.402       .  A
C273        C280   1.452       .  S
C274        C275   1.420       .  A
C275        C276   1.415       .  A
C275        C278   1.451       .  S
C276        C279   1.451       .  S
C277        N284   1.158       .  T
C278        N283   1.156       .  T
C279        N281   1.158       .  T
C280        N282   1.157       .  T
C285        C286   1.402       .  A
C285        C290   1.424       .  A
C286        C287   1.413       .  A
C286        C291   1.450       .  S
C287        C288   1.429       .  A
C287        C294   1.451       .  S
C288        C289   1.405       .  A
C289        C290   1.409       .  A
C289        C292   1.451       .  S
C290        C293   1.452       .  S
C291        N298   1.157       .  T
C292        N297   1.157       .  T
C293        N295   1.157   1_565  T
C294        N296   1.158       .  T
C299        C300   1.407       .  A
C299        C304   1.431       .  A
C300        C301   1.411       .  A
C300        C305   1.452       .  S
C301        C302   1.427       .  A
C301        C308   1.453       .  S
C302        C303   1.402       .  A
C303        C304   1.416       .  A
C303        C306   1.452       .  S
C304        C307   1.448       .  S
C305        N312   1.157       .  T
C306        N311   1.157       .  T
C307        N309   1.156       .  T
C308        N310   1.158       .  T
C313        C314   1.419       .  A
C313        C318   1.418       .  A
C314        C315   1.412       .  A
C314        C319   1.449       .  S
C315        C316   1.405       .  A
C315        C322   1.451       .  S
C316        C317   1.414       .  A
C317        C318   1.423       .  A
C317        C320   1.448       .  S
C318        C321   1.448       .  S
C319        N326   1.156       .  T
C320        N325   1.157       .  T
C321        N323   1.158       .  T
C322        N324   1.158       .  T
C327        C328   1.415       .  A
C327        C332   1.410       .  A
C328        C329   1.424       .  A
C328        C333   1.449       .  S
C329        C330   1.413       .  A
C329        C336   1.442       .  S
C330        C331   1.401       .  A
C331        C332   1.403       .  A
C331        C334   1.448       .  S
C332        C335   1.444       .  S
C333        N340   1.157       .  T
C334        N339   1.157       .  T
C335        N337   1.155       .  T
C336        N338   1.155       .  T
C341        C342   1.415       .  A
C341        C346   1.413       .  A
C342        C343   1.421       .  A
C342        C347   1.449       .  S
C343        C344   1.416       .  A
C343        C350   1.450       .  S
C344        C345   1.416       .  A
C345        C346   1.411       .  A
C345        C348   1.453       .  S
C346        C349   1.453       .  S
C347        N354   1.157       .  T
C348        N353   1.158       .  T
C349        N351   1.157       .  T
C350        N352   1.157       .  T
C355        C356   1.424       .  A
C355        C360   1.412       .  A
C356        C357   1.408       .  A
C356        C361   1.454       .  S
C357        C358   1.404       .  A
C357        C364   1.450       .  S
C358        C359   1.416       .  A
C359        C360   1.422       .  A
C359        C362   1.447       .  S
C360        C363   1.447       .  S
C361        N368   1.157       .  T
C362        N367   1.157       .  T
C363        N365   1.158       .  T
C364        N366   1.157       .  T
C369        C370   1.424       .  A
C369        C374   1.403       .  A
C370        C371   1.411       .  A
C370        C375   1.452       .  S
C371        C372   1.406       .  A
C371        C378   1.451       .  S
C372        C373   1.425       .  A
C373        C374   1.412       .  A
C373        C376   1.451       .  S
C374        C377   1.450       .  S
C375        N382   1.158   1_545  T
C376        N381   1.157       .  T
C377        N379   1.157       .  T
C378        N380   1.157       .  T
C383        C384   1.409       .  A
C383        C388   1.401       .  A
C384        C385   1.420       .  A
C384        C389   1.449       .  S
C385        C386   1.423       .  A
C385        C392   1.440       .  S
C386        C387   1.425       .  A
C387        C388   1.410       .  A
C387        C390   1.448       .  S
C388        C391   1.448       .  S
C389        N396   1.157       .  T
C390        N395   1.157       .  T
C391        N393   1.157       .  T
C392        N394   1.154       .  T
C397        C398   1.410       .  A
C397        C402   1.432       .  A
C398        C399   1.419       .  A
C398        C403   1.447       .  S
C399        C400   1.414       .  A
C399        C406   1.448       .  S
C400        C401   1.398       .  A
C401        C402   1.405       .  A
C401        C404   1.457       .  S
C402        C405   1.452       .  S
C403        N410   1.158       .  T
C404        N409   1.158       .  T
C405        N407   1.156   1_554  T
C406        N408   1.156       .  T
C411        C412   1.428       .  A
C411        C416   1.412       .  A
C412        C413   1.413       .  A
C412        C417   1.453       .  S
C413        C414   1.405       .  A
C413        C420   1.453       .  S
C414        C415   1.417       .  A
C415        C416   1.424       .  A
C415        C418   1.449       .  S
C416        C419   1.447       .  S
C417        N424   1.156   1_556  T
C418        N423   1.156       .  T
C419        N421   1.158       .  T
C420        N422   1.158   1_556  T
C425        C426   1.413       .  A
C425        C430   1.411       .  A
C426        C427   1.420       .  A
C426        C431   1.448       .  S
C427        C428   1.418       .  A
C427        C434   1.450       .  S
C428        C429   1.410       .  A
C429        C430   1.413       .  A
C429        C432   1.443       .  S
C430        C433   1.445       .  S
C431        N438   1.157       .  T
C432        N437   1.156   1_556  T
C433        N435   1.156   1_556  T
C434        N436   1.157       .  T
C439        C440   1.410       .  A
C439        C444   1.410       .  A
C440        C441   1.412       .  A
C440        C445   1.443       .  S
C441        C442   1.407       .  A
C441        C448   1.445       .  S
C442        C443   1.417       .  A
C443        C444   1.419       .  A
C443        C446   1.447       .  S
C444        C447   1.448       .  S
C445        N452   1.154       .  T
C446        N451   1.157       .  T
C447        N449   1.158       .  T
C448        N450   1.156       .  T
C453        C454   1.421       .  A
C453        C458   1.416       .  A
C454        C455   1.418       .  A
C454        C459   1.448       .  S
C455        C456   1.418       .  A
C455        C462   1.451       .  S
C456        C457   1.417       .  A
C457        C458   1.418       .  A
C457        C460   1.439       .  S
C458        C461   1.448       .  S
C459        N466   1.158       .  T
C460        N465   1.154       .  T
C461        N463   1.156       .  T
C462        N464   1.158       .  T
C467        C468   1.420       .  A
C467        C472   1.410       .  A
C468        C469   1.410       .  A
C468        C473   1.447       .  S
C469        C470   1.410       .  A
C469        C476   1.454       .  S
C470        C471   1.414       .  A
C471        C472   1.418       .  A
C471        C474   1.448       .  S
C472        C475   1.448       .  S
C473        N480   1.156       .  T
C474        N479   1.157       .  T
C475       N1083   1.157       .  T
C476        N478   1.158       .  T
N477       C1081   1.157   1_455  T
C481        C482   1.416       .  A
C481        C486   1.414       .  A
C482        C483   1.419       .  A
C482        C487   1.449       .  S
C483        C484   1.412       .  A
C483        C490   1.448       .  S
C484        C485   1.419       .  A
C485        C486   1.418       .  A
C485        C488   1.450       .  S
C486        C489   1.450       .  S
C487        N494   1.158       .  T
C488        N493   1.158       .  T
C489        N491   1.157       .  T
C490        N492   1.157       .  T
C495        C496   1.408       .  A
C495        C500   1.409       .  A
C496        C497   1.413       .  A
C496        C501   1.445       .  S
C497        C498   1.418       .  A
C497        C504   1.444       .  S
C498        C499   1.426       .  A
C499        C500   1.420       .  A
C499        C502   1.447       .  S
C500        C503   1.452       .  S
C501        N508   1.155   1_556  T
C502        N507   1.157       .  T
C503        N505   1.157       .  T
C504        N506   1.155       .  T
C509        C510   1.410       .  A
C509        C514   1.409       .  A
C510        C511   1.414       .  A
C510        C515   1.446       .  S
C511        C512   1.422       .  A
C511        C518   1.449       .  S
C512        C513   1.420       .  A
C513        C514   1.418       .  A
C513        C516   1.436       .  S
C514        C517   1.449       .  S
C515        N522   1.156       .  T
C516        N521   1.152       .  T
C517        N519   1.156       .  T
C518        N520   1.157       .  T
C523        C524   1.400       .  A
C523        C528   1.415       .  A
C524        C525   1.405       .  A
C524        C529   1.455       .  S
C525        C526   1.431       .  A
C525        C532   1.454       .  S
C526        C527   1.414       .  A
C527        C528   1.422       .  A
C527        C530   1.447       .  S
C528        C531   1.449       .  S
C529        N536   1.158       .  T
C530        N535   1.158       .  T
C531        N533   1.157       .  T
C532        N534   1.157       .  T
C537        C538   1.412       .  A
C537        C542   1.428       .  A
C538        C539   1.425       .  A
C538        C543   1.448       .  S
C539        C540   1.419       .  A
C539        C546   1.448       .  S
C540        C541   1.405       .  A
C541        C542   1.414       .  A
C541        C544   1.453       .  S
C542        C545   1.454   1_554  S
C543        N550   1.158       .  T
C544        N549   1.158       .  T
C545        N547   1.156       .  T
C546        N548   1.156       .  T
C551        C552   1.414       .  A
C551        C556   1.411       .  A
C552        C553   1.415       .  A
C552        C557   1.448       .  S
C553        C554   1.407       .  A
C553        C560   1.447       .  S
C554        C555   1.413       .  A
C555        C556   1.415       .  A
C555        C558   1.450       .  S
C556        C559   1.447       .  S
C557        N564   1.157       .  T
C558        N563   1.157       .  T
C559        N561   1.157       .  T
C560        N562   1.157       .  T
C565        C566   1.414       .  A
C565        C570   1.410       .  A
C566        C567   1.415       .  A
C566        C571   1.450       .  S
C567        C568   1.410       .  A
C567        C574   1.449       .  S
C568        C569   1.417       .  A
C569        C570   1.417       .  A
C569        C572   1.450       .  S
C570        C573   1.450       .  S
C571        N578   1.157       .  T
C572        N577   1.157   1_455  T
C573        N575   1.157   1_455  T
C574        N576   1.157       .  T
C579        C580   1.413       .  A
C579        C584   1.416       .  A
C580        C581   1.419       .  A
C580        C585   1.450       .  S
C581        C582   1.421       .  A
C581        C588   1.439       .  S
C582        C583   1.416       .  A
C583        C584   1.418       .  A
C583        C586   1.451       .  S
C584        C587   1.445       .  S
C585       N1198   1.157   1_455  T
C586        N591   1.158       .  T
C587        N589   1.156       .  T
C588       N1196   1.154   1_455  T
N590       C1194   1.154       .  T
N592       C1191   1.157       .  T
C593        C594   1.411       .  A
C593        C598   1.421       .  A
C594        C595   1.402       .  A
C594        C599   1.422       .  S
C595        C596   1.395       .  A
C595        C602   1.448       .  S
C596        C597   1.416       .  A
C597        C598   1.427       .  A
C597        C600   1.447       .  S
C598        C601   1.449       .  S
C599       N1212   1.148   1_455  T
C600        N605   1.157       .  T
C601        N603   1.158       .  T
C602       N1210   1.155   1_455  T
N604       C1208   1.155       .  T
N606       C1205   1.148       .  T
N607        N608   1.339       .  A
N607        N613   1.320       .  A
N607       Mn636   2.294   1_554  S
N608        C615   1.372       .  A
N609        N611   1.321       .  A
N609        N610   1.314       .  A
N609       Mn625   2.177       .  S
N610        C616   1.341       .  A
N611        N612   1.332       .  A
N611       Mn636   2.265       .  S
N612        C616   1.366       .  A
N613        N614   1.309       .  A
N613       Mn625   2.167   1_554  S
N614        C615   1.336       .  A
C615       C1143   1.507       .  S
C616       C1115   1.496       .  S
N617        N623   1.308       .  A
N617        N618   1.328       .  A
N617       Mn647   2.212       .  S
N618        C626   1.353       .  A
N619        N620   1.329       .  A
N619        N621   1.308       .  A
N619       Mn625   2.182   1_554  S
N620        C627   1.347       .  A
N621        N622   1.323       .  A
N621       Mn647   2.201   1_554  S
N622        C627   1.352       .  A
N623        N624   1.327       .  A
N623       Mn625   2.202       .  S
N624        C626   1.352       .  A
Mn625      Cl649   2.456       .  S
C626       C1185   1.516       .  S
C627       C1202   1.496       .  S
N628        N629   1.333       .  A
N628        N634   1.320       .  A
N628       Mn636   2.259       .  S
N629        C637   1.367       .  A
N630        N632   1.321       .  A
N630        N631   1.309       .  A
N630       Mn648   2.185       .  S
N631        C638   1.336       .  A
N632        N633   1.336       .  A
N632       Mn636   2.279   1_554  S
N633        C638   1.368       .  A
N634        N635   1.312       .  A
N634       Mn648   2.185   1_556  S
N635        C637   1.338       .  A
Mn636      Cl649   2.620       .  S
C637       C1101   1.490       .  S
C638       C1132   1.506       .  S
N639        N640   1.326       .  A
N639        N645   1.308       .  A
N639       Mn647   2.212   1_554  S
N640        C650   1.356       .  A
N641        N642   1.324       .  A
N641        N643   1.311       .  A
N641       Mn648   2.200   1_556  S
N642        C651   1.353       .  A
N643        N644   1.323       .  A
N643       Mn647   2.205       .  S
N644        C651   1.352       .  A
N645        N646   1.320       .  A
N645       Mn648   2.180       .  S
N646        C650   1.349       .  A
Mn647      Cl649   2.605       .  S
Mn648      Cl649   2.450   1_554  S
C650       C1171   1.491       .  S
C651       C1160   1.489       .  S
N652        N653   1.329       .  A
N652        N658   1.311       .  A
N652       Mn681   2.233   1_554  S
N653        C660   1.359       .  A
N654        N656   1.311       .  A
N654        N655   1.318       .  A
N654       Mn670   2.164       .  S
N655        C661   1.347       .  A
N656        N657   1.329       .  A
N656       Mn681   2.248       .  S
N657        C661   1.363       .  A
N658        N659   1.323       .  A
N658       Mn670   2.175   1_554  S
N659        C660   1.343       .  A
C660       C1087   1.501       .  S
C661       C1073   1.500       .  S
N662        N668   1.322       .  A
N662        N663   1.332       .  A
N662       Mn692   2.251   1_556  S
N663        C671   1.363       .  A
N664        N665   1.304       .  A
N664        N666   1.314       .  A
N664       Mn670   2.141   1_554  S
N665        C672   1.329       .  A
N666        N667   1.336       .  A
N666       Mn692   2.282       .  S
N667        C672   1.373       .  A
N668        N669   1.317       .  A
N668       Mn670   2.211       .  S
N669        C671   1.343       .  A
Mn670      Cl694   2.465       .  S
C671       C1031   1.497       .  S
C672       C1003   1.498       .  S
N673        N674   1.324       .  A
N673        N679   1.314       .  A
N673       Mn681   2.219       .  S
N674        C682   1.357       .  A
N675        N677   1.308       .  A
N675        N676   1.320       .  A
N675       Mn693   2.184       .  S
N676        C683   1.352       .  A
N677        N678   1.325       .  A
N677       Mn681   2.211   1_554  S
N678        C683   1.359       .  A
N679        N680   1.324       .  A
N679       Mn693   2.204   1_556  S
N680        C682   1.352       .  A
Mn681      Cl694   2.573       .  S
C682       C1045   1.496       .  S
C683       C1059   1.520       .  S
N684        N685   1.330       .  A
N684        N690   1.321       .  A
N684       Mn692   2.233       .  S
N685        C695   1.360       .  A
N686        N687   1.312       .  A
N686        N688   1.324       .  A
N686       Mn693   2.174   1_556  S
N687        C696   1.337       .  A
N688        N689   1.337       .  A
N688       Mn692   2.289   1_556  S
N689        C696   1.369       .  A
N690        N691   1.312       .  A
N690       Mn693   2.194       .  S
N691        C695   1.342       .  A
Mn692      Cl694   2.631   1_554  S
Mn693      Cl694   2.466   1_554  S
C695        C989   1.489       .  S
C696       C1017   1.509       .  S
N697        N698   1.331       .  A
N697        N703   1.322       .  A
N697       Mn726   2.255   1_545  S
N698        C705   1.362       .  A
N699        N701   1.321       .  A
N699        N700   1.310       .  A
N699       Mn715   2.165       .  S
N700        C706   1.336       .  A
N701        N702   1.334       .  A
N701       Mn726   2.270       .  S
N702        C706   1.367       .  A
N703        N704   1.311       .  A
N703       Mn715   2.160   1_545  S
N704        C705   1.336       .  A
C705        C975   1.489       .  S
C706        C947   1.489       .  S
N707        N713   1.311       .  A
N707        N708   1.322       .  A
N707       Mn737   2.190       .  S
N708        C716   1.350       .  A
N709        N710   1.323       .  A
N709        N711   1.312       .  A
N709       Mn715   2.189   1_545  S
N710        C717   1.350       .  A
N711        N712   1.329       .  A
N711       Mn737   2.236   1_545  S
N712        C717   1.359       .  A
N713        N714   1.323       .  A
N713       Mn715   2.190       .  S
N714        C716   1.349       .  A
Mn715      Cl739   2.464       .  S
C716       C1129   1.484       .  S
C717       C1146   1.500       .  S
N718        N719   1.333       .  A
N718        N724   1.321       .  A
N718       Mn726   2.255       .  S
N719        C727   1.363       .  A
N720        N722   1.319       .  A
N720        N721   1.304       .  A
N720       Mn738   2.150   1_545  S
N721        C728   1.335       .  A
N722        N723   1.337       .  A
N722       Mn726   2.276   1_545  S
N723        C728   1.372       .  A
N724        N725   1.311       .  A
N724       Mn738   2.168       .  S
N725        C727   1.338       .  A
Mn726      Cl739   2.609       .  S
C727        C936   1.487       .  S
C728        C961   1.504       .  S
N729        N730   1.322       .  A
N729        N735   1.311       .  A
N729       Mn737   2.195   1_545  S
N730        C740   1.353       .  A
N731        N732   1.316       .  A
N731        N733   1.310       .  A
N731       Mn738   2.180       .  S
N732        C741   1.350       .  A
N733        N734   1.330       .  A
N733       Mn737   2.230       .  S
N734        C741   1.362       .  A
N735        N736   1.320       .  A
N735       Mn738   2.173   1_545  S
N736        C740   1.345       .  A
Mn737      Cl739   2.601       .  S
Mn738      Cl739   2.461       .  S
C740       C1006   1.480       .  S
C741        C992   1.520       .  S
N742        N743   1.324       .  A
N742        N748   1.311       .  A
N742       Mn771   2.219       .  S
N743        C750   1.360       .  A
N744        N746   1.312       .  A
N744        N745   1.322       .  A
N744       Mn760   2.188   1_565  S
N745        C751   1.353       .  A
N746        N747   1.320       .  A
N746       Mn771   2.210   1_565  S
N747        C751   1.357       .  A
N748        N749   1.317       .  A
N748       Mn760   2.181       .  S
N749        C750   1.351       .  A
C750       C1118   1.521       .  S
C751       C1104   1.518       .  S
N752        N758   1.320       .  A
N752        N753   1.332       .  A
N752       Mn782   2.255       .  S
N753        C761   1.364       .  A
N754        N755   1.310       .  A
N754        N756   1.321       .  A
N754       Mn760   2.172       .  S
N755        C762   1.338       .  A
N756        N757   1.334       .  A
N756       Mn782   2.264   1_545  S
N757        C762   1.365       .  A
N758        N759   1.305       .  A
N758       Mn760   2.150   1_565  S
N759        C761   1.334       .  A
Mn760      Cl784   2.470   1_545  S
C761        C891   1.487       .  S
C762        C922   1.489       .  S
N763        N764   1.328       .  A
N763        N769   1.313       .  A
N763       Mn771   2.217   1_565  S
N764        C772   1.356       .  A
N765        N767   1.315       .  A
N765        N766   1.324       .  A
N765       Mn783   2.196   1_545  S
N766        C773   1.351       .  A
N767        N768   1.323       .  A
N767       Mn771   2.214       .  S
N768        C773   1.356       .  A
N769        N770   1.321       .  A
N769       Mn783   2.199       .  S
N770        C772   1.350       .  A
Mn771      Cl784   2.583   1_545  S
C772       C1020   1.495       .  S
C773       C1034   1.505       .  S
N774        N775   1.331       .  A
N774        N780   1.321       .  A
N774       Mn782   2.255   1_545  S
N775        C785   1.365       .  A
N776        N777   1.312       .  A
N776        N778   1.322       .  A
N776       Mn783   2.174       .  S
N777        C786   1.339       .  A
N778        N779   1.330       .  A
N778       Mn782   2.259       .  S
N779        C786   1.366       .  A
N780        N781   1.312       .  A
N780       Mn783   2.170   1_545  S
N781        C785   1.339       .  A
Mn782      Cl784   2.613       .  S
Mn783      Cl784   2.470       .  S
C785        C905   1.504       .  S
C786        C877   1.516       .  S
N787        N788   1.328       .  A
N787        N793   1.323       .  A
N788        C795   1.359       .  A
N789        N791   1.324       .  A
N789        N790   1.313       .  A
N789       Mn805   2.174       .  S
N790        C796   1.339       .  A
N791        N792   1.335       .  A
N792        C796   1.366       .  A
N793        N794   1.314       .  A
N793       Mn805   2.184       .  S
N794        C795   1.340       .  A
C795        C978   1.492       .  S
C796        C919   1.507       .  S
N797        N803   1.307       .  A
N797        N798   1.328       .  A
N798        C806   1.357       .  A
N799        N800   1.326       .  A
N799        N801   1.310       .  A
N799       Mn805   2.191       .  S
N800        C807   1.349       .  A
N801        N802   1.328       .  A
N802        C807   1.363       .  A
N803        N804   1.326       .  A
N803       Mn805   2.203       .  S
N804        C806   1.355       .  A
C806       C1188   1.519       .  S
C807       C1199   1.514       .  S
N808        N809   1.334       .  A
N808        N814   1.319       .  A
N808       Mn816   2.258   1_655  S
N809        C817   1.366       .  A
N810        N812   1.320       .  A
N810        N811   1.310       .  A
N810       Mn828   2.159       .  S
N811        C818   1.336       .  A
N812        N813   1.335       .  A
N812       Mn816   2.268   1_655  S
N813        C818   1.366       .  A
N814        N815   1.308       .  A
N814       Mn828   2.160       .  S
N815        C817   1.334       .  A
Mn816      Cl829   2.602   1_455  S
C817        C908   1.495       .  S
C818        C964   1.485       .  S
N819        N820   1.327       .  A
N819        N825   1.309       .  A
N819       Mn827   2.245       .  S
N820        C830   1.363       .  A
N821        N822   1.317       .  A
N821        N823   1.311       .  A
N821       Mn828   2.149       .  S
N822        C831   1.340       .  A
N823        N824   1.329       .  A
N823       Mn827   2.234       .  S
N824        C831   1.358       .  A
N825        N826   1.322       .  A
N825       Mn828   2.167       .  S
N826        C830   1.348       .  A
Mn827      Cl829   2.592       .  S
Mn828      Cl829   2.480       .  S
C830       C1090   1.501       .  S
C831       C1076   1.492       .  S
N832        N833   1.323       .  A
N832        N838   1.313       .  A
N833        C840   1.356       .  A
N834        N836   1.312       .  A
N834        N835   1.320       .  A
N834       Mn850   2.179       .  S
N835        C841   1.348       .  A
N836        N837   1.327       .  A
N837        C841   1.359       .  A
N838        N839   1.323       .  A
N838       Mn850   2.173       .  S
N839        C840   1.346       .  A
C840       C1174   1.495       .  S
C841       C1157   1.492       .  S
N842        N848   1.324       .  A
N842        N843   1.330       .  A
N843        C851   1.361       .  A
N844        N845   1.311       .  A
N844        N846   1.322       .  A
N844       Mn850   2.167       .  S
N845        C852   1.338       .  A
N846        N847   1.333       .  A
N847        C852   1.365       .  A
N848        N849   1.311       .  A
N848       Mn850   2.167       .  S
N849        C851   1.337       .  A
C851        C894   1.495       .  S
C852        C950   1.494       .  S
N853        N854   1.324       .  A
N853        N859   1.312       .  A
N853       Mn861   2.225   1_655  S
N854        C862   1.355       .  A
N855        N857   1.309       .  A
N855        N856   1.320       .  A
N855       Mn873   2.182       .  S
N856        C863   1.352       .  A
N857        N858   1.327       .  A
N857       Mn861   2.227   1_655  S
N858        C863   1.361       .  A
N859        N860   1.323       .  A
N859       Mn873   2.175       .  S
N860        C862   1.348       .  A
Mn861      Cl874   2.591       .  S
C862       C1048   1.496       .  S
C863       C1062   1.520       .  S
N864        N865   1.333       .  A
N864        N870   1.321       .  A
N864       Mn872   2.258   1_655  S
N865        C875   1.364       .  A
N866        N867   1.310       .  A
N866        N868   1.320       .  A
N866       Mn873   2.158       .  S
N867        C876   1.336       .  A
N868        N869   1.334       .  A
N868       Mn872   2.275   1_655  S
N869        C876   1.368       .  A
N870        N871   1.309       .  A
N870       Mn873   2.165       .  S
N871        C875   1.338       .  A
Mn872      Cl874   2.597       .  S
Mn873      Cl874   2.475   1_655  S
C875        C933   1.492       .  S
C876        C880   1.493       .  S
C877        C878   1.436       .  A
C877        C882   1.415       .  A
C878        C879   1.417       .  A
C878        C883   1.452       .  S
C879        C880   1.402       .  A
C879        C886   1.452       .  S
C880        C881   1.420       .  A
C881        C882   1.416       .  A
C881        C884   1.451       .  S
C882        C885   1.451       .  S
C883        N890   1.158       .  T
C884        N889   1.156       .  T
C885        N887   1.158       .  T
C886        N888   1.157       .  T
C891        C892   1.402       .  A
C891        C896   1.424       .  A
C892        C893   1.413       .  A
C892        C897   1.450       .  S
C893        C894   1.429       .  A
C893        C900   1.451       .  S
C894        C895   1.405       .  A
C895        C896   1.409       .  A
C895        C898   1.451       .  S
C896        C899   1.452       .  S
C897        N904   1.157       .  T
C898        N903   1.157       .  T
C899        N901   1.157   1_565  T
C900        N902   1.158       .  T
C905        C906   1.407       .  A
C905        C910   1.431       .  A
C906        C907   1.411       .  A
C906        C911   1.452       .  S
C907        C908   1.427       .  A
C907        C914   1.453       .  S
C908        C909   1.402       .  A
C909        C910   1.416       .  A
C909        C912   1.452       .  S
C910        C913   1.448       .  S
C911        N918   1.157       .  T
C912        N917   1.157       .  T
C913        N915   1.156       .  T
C914        N916   1.158       .  T
C919        C920   1.419       .  A
C919        C924   1.418       .  A
C920        C921   1.412       .  A
C920        C925   1.449       .  S
C921        C922   1.405       .  A
C921        C928   1.451       .  S
C922        C923   1.414       .  A
C923        C924   1.423       .  A
C923        C926   1.448       .  S
C924        C927   1.448       .  S
C925        N932   1.156       .  T
C926        N931   1.157       .  T
C927        N929   1.158       .  T
C928        N930   1.158       .  T
C933        C934   1.415       .  A
C933        C938   1.410       .  A
C934        C935   1.424       .  A
C934        C939   1.449       .  S
C935        C936   1.413       .  A
C935        C942   1.442       .  S
C936        C937   1.401       .  A
C937        C938   1.403       .  A
C937        C940   1.448       .  S
C938        C941   1.444       .  S
C939        N946   1.157       .  T
C940        N945   1.157       .  T
C941        N943   1.155       .  T
C942        N944   1.155       .  T
C947        C948   1.415       .  A
C947        C952   1.413       .  A
C948        C949   1.421       .  A
C948        C953   1.449       .  S
C949        C950   1.416       .  A
C949        C956   1.450       .  S
C950        C951   1.416       .  A
C951        C952   1.411       .  A
C951        C954   1.453       .  S
C952        C955   1.453       .  S
C953        N960   1.157       .  T
C954        N959   1.158       .  T
C955        N957   1.157       .  T
C956        N958   1.157       .  T
C961        C962   1.424       .  A
C961        C966   1.412       .  A
C962        C963   1.408       .  A
C962        C967   1.454       .  S
C963        C964   1.404       .  A
C963        C970   1.450       .  S
C964        C965   1.416       .  A
C965        C966   1.422       .  A
C965        C968   1.447       .  S
C966        C969   1.447       .  S
C967        N974   1.157       .  T
C968        N973   1.157       .  T
C969        N971   1.158       .  T
C970        N972   1.157       .  T
C975        C976   1.424       .  A
C975        C980   1.403       .  A
C976        C977   1.411       .  A
C976        C981   1.452       .  S
C977        C978   1.406       .  A
C977        C984   1.451       .  S
C978        C979   1.425       .  A
C979        C980   1.412       .  A
C979        C982   1.451       .  S
C980        C983   1.450       .  S
C981        N988   1.158   1_545  T
C982        N987   1.157       .  T
C983        N985   1.157       .  T
C984        N986   1.157       .  T
C989        C990   1.409       .  A
C989        C994   1.401       .  A
C990        C991   1.420       .  A
C990        C995   1.449       .  S
C991        C992   1.423       .  A
C991        C998   1.440       .  S
C992        C993   1.425       .  A
C993        C994   1.410       .  A
C993        C996   1.448       .  S
C994        C997   1.448       .  S
C995       N1002   1.157       .  T
C996       N1001   1.157       .  T
C997        N999   1.157       .  T
C998       N1000   1.154       .  T
C1003      C1004   1.410       .  A
C1003      C1008   1.432       .  A
C1004      C1005   1.419       .  A
C1004      C1009   1.447       .  S
C1005      C1006   1.414       .  A
C1005      C1012   1.448       .  S
C1006      C1007   1.398       .  A
C1007      C1008   1.405       .  A
C1007      C1010   1.457       .  S
C1008      C1011   1.452       .  S
C1009      N1016   1.158       .  T
C1010      N1015   1.158       .  T
C1011      N1013   1.156   1_554  T
C1012      N1014   1.156       .  T
C1017      C1018   1.428       .  A
C1017      C1022   1.412       .  A
C1018      C1019   1.413       .  A
C1018      C1023   1.453       .  S
C1019      C1020   1.405       .  A
C1019      C1026   1.453       .  S
C1020      C1021   1.417       .  A
C1021      C1022   1.424       .  A
C1021      C1024   1.449       .  S
C1022      C1025   1.447       .  S
C1023      N1030   1.156   1_556  T
C1024      N1029   1.156       .  T
C1025      N1027   1.158       .  T
C1026      N1028   1.158   1_556  T
C1031      C1032   1.413       .  A
C1031      C1036   1.411       .  A
C1032      C1033   1.420       .  A
C1032      C1037   1.448       .  S
C1033      C1034   1.418       .  A
C1033      C1040   1.450       .  S
C1034      C1035   1.410       .  A
C1035      C1036   1.413       .  A
C1035      C1038   1.443       .  S
C1036      C1039   1.445       .  S
C1037      N1044   1.157       .  T
C1038      N1043   1.156   1_556  T
C1039      N1041   1.156   1_556  T
C1040      N1042   1.157       .  T
C1045      C1046   1.410       .  A
C1045      C1050   1.410       .  A
C1046      C1047   1.412       .  A
C1046      C1051   1.443       .  S
C1047      C1048   1.407       .  A
C1047      C1054   1.445       .  S
C1048      C1049   1.417       .  A
C1049      C1050   1.419       .  A
C1049      C1052   1.447       .  S
C1050      C1053   1.448       .  S
C1051      N1058   1.154       .  T
C1052      N1057   1.157       .  T
C1053      N1055   1.158       .  T
C1054      N1056   1.156       .  T
C1059      C1060   1.421       .  A
C1059      C1064   1.416       .  A
C1060      C1061   1.418       .  A
C1060      C1065   1.448       .  S
C1061      C1062   1.418       .  A
C1061      C1068   1.451       .  S
C1062      C1063   1.417       .  A
C1063      C1064   1.418       .  A
C1063      C1066   1.439       .  S
C1064      C1067   1.448       .  S
C1065      N1072   1.157       .  T
C1066      N1071   1.154   1_655  T
C1067      N1069   1.156   1_655  T
C1068      N1070   1.158       .  T
C1073      C1074   1.420       .  A
C1073      C1078   1.410       .  A
C1074      C1075   1.410       .  A
C1074      C1079   1.447       .  S
C1075      C1076   1.410       .  A
C1075      C1082   1.454       .  S
C1076      C1077   1.414       .  A
C1077      C1078   1.418       .  A
C1077      C1080   1.448       .  S
C1078      C1081   1.448       .  S
C1079      N1086   1.156       .  T
C1080      N1085   1.157   1_655  T
C1082      N1084   1.158       .  T
C1087      C1088   1.416       .  A
C1087      C1092   1.414       .  A
C1088      C1089   1.419       .  A
C1088      C1093   1.449       .  S
C1089      C1090   1.412       .  A
C1089      C1096   1.448       .  S
C1090      C1091   1.419       .  A
C1091      C1092   1.418       .  A
C1091      C1094   1.450       .  S
C1092      C1095   1.450       .  S
C1093      N1100   1.158       .  T
C1094      N1099   1.158       .  T
C1095      N1097   1.157       .  T
C1096      N1098   1.157       .  T
C1101      C1102   1.408       .  A
C1101      C1106   1.409       .  A
C1102      C1103   1.413       .  A
C1102      C1107   1.445       .  S
C1103      C1104   1.418       .  A
C1103      C1110   1.444       .  S
C1104      C1105   1.426       .  A
C1105      C1106   1.420       .  A
C1105      C1108   1.447       .  S
C1106      C1109   1.452       .  S
C1107      N1114   1.155   1_556  T
C1108      N1113   1.157       .  T
C1109      N1111   1.157       .  T
C1110      N1112   1.155       .  T
C1115      C1116   1.410       .  A
C1115      C1120   1.409       .  A
C1116      C1117   1.414       .  A
C1116      C1121   1.446       .  S
C1117      C1118   1.422       .  A
C1117      C1124   1.449       .  S
C1118      C1119   1.420       .  A
C1119      C1120   1.418       .  A
C1119      C1122   1.436       .  S
C1120      C1123   1.449       .  S
C1121      N1128   1.156       .  T
C1122      N1127   1.152       .  T
C1123      N1125   1.156       .  T
C1124      N1126   1.157       .  T
C1129      C1130   1.400       .  A
C1129      C1134   1.415       .  A
C1130      C1131   1.405       .  A
C1130      C1135   1.455       .  S
C1131      C1132   1.431       .  A
C1131      C1138   1.454       .  S
C1132      C1133   1.414       .  A
C1133      C1134   1.422       .  A
C1133      C1136   1.447       .  S
C1134      C1137   1.449       .  S
C1135      N1142   1.158       .  T
C1136      N1141   1.158       .  T
C1137      N1139   1.157       .  T
C1138      N1140   1.157       .  T
C1143      C1144   1.412       .  A
C1143      C1148   1.428       .  A
C1144      C1145   1.425       .  A
C1144      C1149   1.448       .  S
C1145      C1146   1.419       .  A
C1145      C1152   1.448       .  S
C1146      C1147   1.405       .  A
C1147      C1148   1.414       .  A
C1147      C1150   1.453       .  S
C1148      C1151   1.454   1_554  S
C1149      N1156   1.158       .  T
C1150      N1155   1.158       .  T
C1151      N1153   1.156       .  T
C1152      N1154   1.156       .  T
C1157      C1158   1.414       .  A
C1157      C1162   1.411       .  A
C1158      C1159   1.415       .  A
C1158      C1163   1.448       .  S
C1159      C1160   1.407       .  A
C1159      C1166   1.447       .  S
C1160      C1161   1.413       .  A
C1161      C1162   1.415       .  A
C1161      C1164   1.450       .  S
C1162      C1165   1.447       .  S
C1163      N1170   1.157       .  T
C1164      N1169   1.157       .  T
C1165      N1167   1.157       .  T
C1166      N1168   1.157       .  T
C1171      C1172   1.414       .  A
C1171      C1176   1.410       .  A
C1172      C1173   1.415       .  A
C1172      C1177   1.450       .  S
C1173      C1174   1.410       .  A
C1173      C1180   1.449       .  S
C1174      C1175   1.417       .  A
C1175      C1176   1.417       .  A
C1175      C1178   1.450       .  S
C1176      C1179   1.450       .  S
C1177      N1184   1.157       .  T
C1178      N1183   1.157       .  T
C1179      N1181   1.157       .  T
C1180      N1182   1.157       .  T
C1185      C1186   1.413       .  A
C1185      C1190   1.416       .  A
C1186      C1187   1.419       .  A
C1186      C1191   1.450       .  S
C1187      C1188   1.421       .  A
C1187      C1194   1.439       .  S
C1188      C1189   1.416       .  A
C1189      C1190   1.418       .  A
C1189      C1192   1.451       .  S
C1190      C1193   1.445       .  S
C1192      N1197   1.158       .  T
C1193      N1195   1.156       .  T
C1199      C1200   1.411       .  A
C1199      C1204   1.421       .  A
C1200      C1201   1.402       .  A
C1200      C1205   1.422       .  S
C1201      C1202   1.395       .  A
C1201      C1208   1.448       .  S
C1202      C1203   1.416       .  A
C1203      C1204   1.427       .  A
C1203      C1206   1.447       .  S
C1204      C1207   1.449       .  S
C1206      N1211   1.157       .  T
C1207      N1209   1.158       .  T
