geometry optimzed in LAMMPS
_audit_creation_date              2020-11-30 
_audit_creation_method            'lammps2cif' 
_symmetry_space_group_name_H-M    'P1' 
_symmetry_Int_Tables_number       1 
_symmetry_cell_setting            triclinic 
loop_ 
_symmetry_equiv_pos_as_xyz 
  x,y,z 
_cell_length_a                    62.93623144 
_cell_length_b                    63.13402255046262 
_cell_length_c                    32.08267868711392 
_cell_angle_alpha                 89.90892453708457 
_cell_angle_beta                  89.88659207849777 
_cell_angle_gamma                 123.05653820542926 
loop_ 
_atom_site_label 
_atom_site_type_symbol 
_atom_site_fract_x 
_atom_site_fract_y 
_atom_site_fract_z 
_atom_site_charge 
O1          O  0.18643779  0.65093053  0.29496556    -0.57500
C2          C  0.21637356  0.72195925  0.30061339     0.75100
O3          O  0.16302582  0.66959860  0.22423639    -0.58600
C4          C  0.16696947  0.63012910  0.30638226     0.75100
C5          C  0.14993726  0.67925509  0.38192179     0.77500
Cd6        Cd  0.16731429  0.67568823  0.30005874     1.37500
O7          O  0.21360951  0.70083092  0.30745311    -0.57500
O8          O  0.17236060  0.69353430  0.36884428    -0.56300
C9          C  0.14754753  0.67607371  0.21817824     0.77500
O10         O  0.13412270  0.66332234  0.35594564    -0.58700
O11         O  0.19646096  0.72145620  0.29199636    -0.57100
O12         O  0.14751504  0.63041460  0.31510146    -0.57100
O13         O  0.13990600  0.68138695  0.25074870    -0.56300
O14         O  0.18779554  0.65149609  0.63598152    -0.57500
C15         C  0.21493765  0.72257074  0.63974298     0.75100
O16         O  0.13751974  0.65589477  0.57922751    -0.58600
C17         C  0.16772693  0.62991765  0.64210439     0.75100
C18         C  0.14893872  0.67648312  0.72346462     0.77500
Cd19       Cd  0.16678016  0.67508338  0.64075545     1.37500
O20         O  0.21298255  0.70241628  0.62772092    -0.57500
O21         O  0.16783432  0.67503590  0.71663528    -0.56300
C22         C  0.14659476  0.67644353  0.55948555     0.77500
O23         O  0.13699810  0.67626100  0.69140062    -0.58700
O24         O  0.19469983  0.72021912  0.65219768    -0.57100
O25         O  0.14757765  0.62958892  0.64641637    -0.57100
O26         O  0.16255433  0.69603088  0.57929792    -0.56300
O27         O  0.21486528  0.51457525  0.65401424    -0.57500
C28         C  0.17000215  0.53919502  0.64840692     0.75100
O29         O  0.13694638  0.47017931  0.59426637    -0.58600
C30         C  0.21485333  0.49458037  0.65806851     0.75100
C31         C  0.14592237  0.46874753  0.73199905     0.77500
Cd32       Cd  0.16846376  0.49278345  0.65251150     1.37500
O33         O  0.18984464  0.53915468  0.65435263    -0.57500
O34         O  0.16264493  0.49203716  0.72797518    -0.56300
C35         C  0.15391373  0.47422870  0.56807850     0.77500
O36         O  0.13821497  0.45631260  0.69833250    -0.58700
O37         O  0.14956318  0.51773499  0.64474128    -0.57100
O38         O  0.19333298  0.47414895  0.66087089    -0.57100
O39         O  0.17621517  0.48518373  0.58196956    -0.56300
O40         O  0.18818699  0.53981843  0.29875318    -0.57500
C41         C  0.21656419  0.49786091  0.30255689     0.75100
O42         O  0.17824054  0.48948116  0.37699817    -0.58600
C43         C  0.16814130  0.53926855  0.30598345     0.75100
C44         C  0.14869977  0.47036939  0.22569845     0.77500
Cd45       Cd  0.16937093  0.49445296  0.30553800     1.37500
O46         O  0.21622812  0.51770657  0.30524615    -0.57500
O47         O  0.16709598  0.49292688  0.22995133    -0.56300
C48         C  0.15578997  0.47557411  0.39021323     0.77500
O49         O  0.13864960  0.45825879  0.25928931    -0.58700
O50         O  0.19524216  0.47712420  0.29990459    -0.57100
O51         O  0.14842518  0.51780712  0.31383120    -0.57100
O52         O  0.13839317  0.46944580  0.36373477    -0.56300
O53         O  0.52595714  0.70737578  0.64987224    -0.57500
C54         C  0.50041659  0.63805905  0.65793423     0.75100
O55         O  0.56244357  0.70281778  0.58278584    -0.58600
C56         C  0.54501742  0.72909198  0.65843066     0.75100
C57         C  0.57371899  0.68989292  0.73237891     0.77500
Cd58       Cd  0.54852565  0.68562416  0.65402653     1.37500
O59         O  0.50215687  0.65900775  0.65884420    -0.57500
O60         O  0.55030424  0.68093978  0.72924016    -0.56300
C61         C  0.56533640  0.68580449  0.56909760     0.77500
O62         O  0.58598027  0.69614698  0.69831921    -0.58700
O63         O  0.52111290  0.63931144  0.65519229    -0.57100
O64         O  0.56559825  0.73043765  0.66473924    -0.57100
O65         O  0.56277667  0.66973342  0.59568149    -0.56300
O66         O  0.38091794  0.54258699  0.65114077    -0.57500
C67         C  0.30911645  0.49865368  0.66007007     0.75100
O68         O  0.33302975  0.47992947  0.58928158    -0.58600
C69         C  0.40153317  0.54390717  0.65606095     0.75100
C70         C  0.34872722  0.47416391  0.73845561     0.77500
Cd71       Cd  0.35321338  0.49635918  0.65696470     1.37500
O72         O  0.33081818  0.51837851  0.65323036    -0.57500
O73         O  0.35445290  0.49650863  0.73341659    -0.56300
C74         C  0.34751436  0.47366193  0.57510121     0.77500
O75         O  0.34572149  0.46187327  0.70531847    -0.58700
O76         O  0.30836285  0.47840965  0.66599847    -0.57100
O77         O  0.39967977  0.52299879  0.65995436    -0.57100
O78         O  0.36478868  0.47680072  0.59958426    -0.56300
O79         O  0.49727632  0.65180981  0.31053892    -0.57500
C80         C  0.53906533  0.71958595  0.30332506     0.75100
O81         O  0.56794832  0.70044208  0.36990336    -0.58600
C82         C  0.49464682  0.63048094  0.31142817     0.75100
C83         C  0.56528988  0.67904649  0.22557632     0.77500
Cd84       Cd  0.54370160  0.67689417  0.30726179     1.37500
O85         O  0.52094487  0.69821604  0.31591740    -0.57500
O86         O  0.54316401  0.67389949  0.23142932    -0.56300
C87         C  0.56529797  0.68194915  0.39002688     0.77500
O88         O  0.57771395  0.68173227  0.25846074    -0.58700
O89         O  0.55919622  0.72094818  0.29284255    -0.57100
O90         O  0.51490767  0.63071607  0.31053368    -0.57100
O91         O  0.55512773  0.66138939  0.37006045    -0.56300
O92         O  0.32804342  0.51249617  0.31199229    -0.57500
C93         C  0.39741216  0.53501305  0.31745269     0.75100
O94         O  0.33038670  0.47527055  0.38439247    -0.58600
C95         C  0.30572063  0.49308152  0.30918669     0.75100
C96         C  0.34517640  0.46518314  0.23405559     0.77500
Cd97       Cd  0.34851910  0.48833420  0.31409618     1.37500
O98         O  0.37697725  0.53441371  0.31739784    -0.57500
O99         O  0.35364126  0.48829595  0.23876538    -0.56300
C100        C  0.34489000  0.46882672  0.39792454     0.77500
O101        O  0.33858118  0.45210104  0.26725986    -0.58700
O102        O  0.39513643  0.51384958  0.31612029    -0.57100
O103        O  0.30365458  0.47200287  0.30715180    -0.57100
O104        O  0.35998287  0.46907602  0.37146968    -0.56300
O105        O  0.33391719  0.81974726  0.64641373    -0.57500
C106        C  0.40612845  0.86669003  0.66076475     0.75100
O107        O  0.34305812  0.87958473  0.59879507    -0.58600
C108        C  0.31280025  0.81776832  0.64797193     0.75100
C109        C  0.35818864  0.88665026  0.73603602     0.77500
Cd110      Cd  0.36004731  0.86635203  0.65596462     1.37500
O111        O  0.38465823  0.84635189  0.65545274    -0.57500
O112        O  0.35699041  0.86613797  0.73183314    -0.56300
C113        C  0.36134068  0.88651520  0.57396332     0.77500
O114        O  0.36073498  0.89861871  0.70267883    -0.58700
O115        O  0.40597287  0.88658538  0.66417161    -0.57100
O116        O  0.31386059  0.83808382  0.65420890    -0.57100
O117        O  0.38008334  0.88677588  0.58862649    -0.56300
O118        O  0.52331213  0.81950913  0.66263757    -0.57500
C119        C  0.49796862  0.86535545  0.66514467     0.75100
O120        O  0.58104173  0.89406308  0.71038946    -0.58600
C121        C  0.54368222  0.82022826  0.66789004     0.75100
C122        C  0.56249100  0.87940987  0.57992328     0.77500
Cd123      Cd  0.54411089  0.86582049  0.66464456     1.37500
O124        O  0.49807271  0.84550659  0.66965748    -0.57500
O125        O  0.54871033  0.85710321  0.59344254    -0.56300
C126        C  0.56845766  0.88581261  0.74407127     0.77500
O127        O  0.56860533  0.89693771  0.60604931    -0.58700
O128        O  0.51952285  0.88566935  0.66044398    -0.57100
O129        O  0.56346469  0.84187200  0.67351995    -0.57100
O130        O  0.54484084  0.87025772  0.74029972    -0.56300
O131        O  0.38268044  0.84321687  0.30970651    -0.57500
C132        C  0.31300336  0.81766370  0.30692224     0.75100
O133        O  0.34110729  0.85958360  0.38248179    -0.58600
C134        C  0.40451392  0.86216164  0.31780705     0.75100
C135        C  0.36108412  0.88791548  0.23419500     0.77500
Cd136      Cd  0.36042981  0.86520018  0.31351047     1.37500
O137        O  0.33300418  0.81891119  0.31782334    -0.57500
O138        O  0.36686996  0.87173797  0.23783329    -0.56300
C139        C  0.35678318  0.88134435  0.39657459     0.77500
O140        O  0.35670746  0.89524873  0.26799730    -0.58700
O141        O  0.31520963  0.83844798  0.29931595    -0.57100
O142        O  0.40598703  0.88277869  0.32343052    -0.57100
O143        O  0.37379904  0.89671805  0.37128111    -0.56300
O144        O  0.51689040  0.80960968  0.31491754    -0.57500
C145        C  0.49475781  0.85868417  0.32320969     0.75100
O146        O  0.56388600  0.88972842  0.37463234    -0.58600
C147        C  0.53737816  0.81028081  0.31175813     0.75100
C148        C  0.56106206  0.87378096  0.23895597     0.77500
Cd149      Cd  0.53900700  0.85625297  0.32062329     1.37500
O150        O  0.49327810  0.83804960  0.32916791    -0.57500
O151        O  0.53768071  0.85836113  0.24534043    -0.56300
C152        C  0.55954389  0.87395384  0.40325344     0.77500
O153        O  0.57465206  0.88320212  0.27134403    -0.58700
O154        O  0.51668697  0.87786118  0.31607821    -0.57100
O155        O  0.55764319  0.83188854  0.31389968    -0.57100
O156        O  0.54723364  0.85097674  0.39274022    -0.56300
O157        O  0.82524043  0.51276214  0.65300691    -0.57500
C158        C  0.87049784  0.48842447  0.64240489     0.75100
O159        O  0.90307127  0.55830820  0.58459283    -0.58600
C160        C  0.82534505  0.53287944  0.65208910     0.75100
C161        C  0.89326222  0.55951327  0.72116914     0.77500
Cd162      Cd  0.87157773  0.53435318  0.64276970     1.37500
O163        O  0.85064730  0.48850373  0.64845401    -0.57500
O164        O  0.88250729  0.53592889  0.71709018    -0.56300
C165        C  0.88591601  0.55067570  0.55711069     0.77500
O166        O  0.89685635  0.57202747  0.68803579    -0.58700
O167        O  0.89086505  0.50969536  0.63615124    -0.57100
O168        O  0.84672439  0.55313275  0.64633645    -0.57100
O169        O  0.86330928  0.53661421  0.56967666    -0.56300
O170        O  0.85087895  0.37560217  0.64893947    -0.57500
C171        C  0.82275012  0.30451536  0.64199903     0.75100
O172        O  0.90260580  0.36805704  0.58205619    -0.58600
C173        C  0.87039942  0.39677785  0.63892373     0.75100
C174        C  0.89326846  0.35050996  0.72028399     0.77500
Cd175      Cd  0.87119023  0.35161653  0.64130016     1.37500
O176        O  0.82463919  0.32536515  0.63649524    -0.57500
O177        O  0.87704184  0.35629103  0.71709467    -0.56300
C178        C  0.88803739  0.35015429  0.55765819     0.77500
O179        O  0.90079571  0.34662781  0.68620013    -0.58700
O180        O  0.84325077  0.30569736  0.64809743    -0.57100
O181        O  0.89005272  0.39686560  0.63026203    -0.57100
O182        O  0.86712642  0.33292513  0.57295153    -0.56300
O183        O  0.84251155  0.48516846  0.29797487    -0.57500
C184        C  0.82061091  0.53340521  0.29106288     0.75100
O185        O  0.89832927  0.55556517  0.35152069    -0.58600
C186        C  0.86231512  0.48465616  0.29757994     0.75100
C187        C  0.88837749  0.55568586  0.21686467     0.77500
Cd188      Cd  0.86525231  0.53179607  0.29586665     1.37500
O189        O  0.81951730  0.51281751  0.28877863    -0.57500
O190        O  0.86929659  0.53329603  0.21992432    -0.56300
C191        C  0.88200731  0.54942786  0.38012333     0.77500
O192        O  0.89763151  0.56720856  0.25096160    -0.58700
O193        O  0.84259168  0.55324150  0.29461155    -0.57100
O194        O  0.88310493  0.50594533  0.29604199    -0.57100
O195        O  0.85905648  0.53592127  0.36933417    -0.56300
O196        O  0.81938454  0.32220134  0.29804874    -0.57500
C197        C  0.86446025  0.39377950  0.30021761     0.75100
O198        O  0.89979939  0.36683181  0.35356340    -0.58600
C199        C  0.81806381  0.30145616  0.30030945     0.75100
C200        C  0.88602103  0.34602785  0.21808205     0.77500
Cd201      Cd  0.86596706  0.34886316  0.29829918     1.37500
O202        O  0.84434142  0.37198935  0.30316902    -0.57500
O203        O  0.86803561  0.34930614  0.22191191    -0.56300
C204        C  0.88590791  0.35021730  0.38046016     0.77500
O205        O  0.89572101  0.34481519  0.25184131    -0.58700
O206        O  0.88474526  0.39433860  0.29663687    -0.57100
O207        O  0.83890841  0.30285459  0.30054962    -0.57100
O208        O  0.86425866  0.33277782  0.36816020    -0.56300
O209        O  0.71056056  0.51970266  0.30845087    -0.57500
C210        C  0.63950771  0.49394467  0.31101014     0.75100
O211        O  0.67808669  0.55972671  0.37525822    -0.58600
C212        C  0.73224867  0.53963259  0.30238302     0.75100
C213        C  0.69339052  0.56813576  0.23676284     0.77500
Cd214      Cd  0.68810082  0.54138600  0.31353943     1.37500
O215        O  0.66009077  0.49484640  0.31235881    -0.57500
O216        O  0.68456924  0.54477646  0.23852390    -0.56300
C217        C  0.69251678  0.55760138  0.39999067     0.77500
O218        O  0.69874740  0.57955740  0.27146475    -0.58700
O219        O  0.64158617  0.51503715  0.31082339    -0.57100
O220        O  0.73312014  0.56011093  0.30103148    -0.57100
O221        O  0.70519863  0.54966274  0.38385227    -0.56300
O222        O  0.54072525  0.37669730  0.30801025    -0.57500
C223        C  0.49790275  0.30771365  0.31694848     0.75100
O224        O  0.46346471  0.33318861  0.36504801    -0.58600
C225        C  0.54289667  0.39770792  0.30318280     0.75100
C226        C  0.47302025  0.34650140  0.22393950     0.77500
Cd227      Cd  0.49442796  0.35098298  0.30614007     1.37500
O228        O  0.51741366  0.32998234  0.31683300    -0.57500
O229        O  0.49364911  0.34816770  0.23012214    -0.56300
C230        C  0.47503689  0.35273389  0.38760075     0.77500
O231        O  0.46184786  0.34732878  0.25625380    -0.58700
O232        O  0.47691208  0.30555668  0.31158550    -0.57100
O233        O  0.52242560  0.39692975  0.29914624    -0.57100
O234        O  0.49357221  0.37205529  0.37050951    -0.56300
O235        O  0.66214774  0.49386372  0.66976360    -0.57500
C236        C  0.73612145  0.53784682  0.66641719     0.75100
O237        O  0.68612359  0.56396809  0.60701672    -0.58600
C238        C  0.64203507  0.49357071  0.66503525     0.75100
C239        C  0.69741519  0.56373952  0.74545887     0.77500
Cd240      Cd  0.69130920  0.53951130  0.66514052     1.37500
O241        O  0.71416374  0.51783839  0.66912028    -0.57500
O242        O  0.68524178  0.54003864  0.74127277    -0.56300
C243        C  0.69412413  0.55567651  0.57911756     0.77500
O244        O  0.70535897  0.57655320  0.71197320    -0.58700
O245        O  0.73698121  0.55830539  0.66477795    -0.57100
O246        O  0.64473826  0.51488277  0.66075095    -0.57100
O247        O  0.70024464  0.54073134  0.59143057    -0.56300
O248        O  0.52006469  0.33030839  0.64481507    -0.57500
C249        C  0.54419455  0.39973872  0.64972194     0.75100
O250        O  0.48328647  0.33491448  0.57707937    -0.58600
C251        C  0.50044479  0.30808096  0.64646873     0.75100
C252        C  0.47274968  0.34446846  0.72790598     0.77500
Cd253      Cd  0.49685879  0.35147920  0.64741867     1.37500
O254        O  0.54308370  0.37912404  0.64822218    -0.57500
O255        O  0.49576846  0.35204986  0.72337853    -0.56300
C256        C  0.47707115  0.34979951  0.56488262     0.77500
O257        O  0.46053331  0.34098372  0.69451865    -0.58700
O258        O  0.52323902  0.39807719  0.64907734    -0.57100
O259        O  0.47934662  0.30615572  0.64866808    -0.57100
O260        O  0.47885285  0.36543252  0.59163602    -0.56300
O261        O  0.70585203  0.20711035  0.64378181    -0.57500
C262        C  0.63613235  0.16625692  0.65936230     0.75100
O263        O  0.69539494  0.15489375  0.58833730    -0.58600
C264        C  0.72649156  0.20833340  0.64850953     0.75100
C265        C  0.68229592  0.14155816  0.73421248     0.77500
Cd266      Cd  0.67867150  0.16093189  0.65360497     1.37500
O267        O  0.65811695  0.18481032  0.65024003    -0.57500
O268        O  0.68259866  0.16158479  0.72964709    -0.56300
C269        C  0.67450380  0.13998355  0.57057768     0.77500
O270        O  0.67947025  0.12939983  0.70101589    -0.58700
O271        O  0.63412366  0.14543941  0.66598704    -0.57100
O272        O  0.72469442  0.18764107  0.65484689    -0.57100
O273        O  0.65506744  0.13228984  0.59301808    -0.56300
O274        O  0.70033462  0.20326295  0.30269948    -0.57500
C275        C  0.63038783  0.15843532  0.30806390     0.75100
O276        O  0.68203219  0.12855817  0.26227983    -0.58600
C277        C  0.72160324  0.20551436  0.30303865     0.75100
C278        C  0.67514181  0.14027942  0.39175459     0.77500
Cd279      Cd  0.67508539  0.15685431  0.30723452     1.37500
O280        O  0.65251150  0.17822610  0.30846251    -0.57500
O281        O  0.65783995  0.12542329  0.36663914    -0.56300
C282        C  0.67806322  0.13615538  0.22831971     0.77500
O283        O  0.69230696  0.16132551  0.37689141    -0.58700
O284        O  0.62895785  0.13765261  0.30751866    -0.57100
O285        O  0.72113259  0.18522329  0.30525688    -0.57100
O286        O  0.67166984  0.15183755  0.23168901    -0.56300
O287        O  0.52257418  0.21865883  0.31512395    -0.57500
C288        C  0.54391477  0.16807509  0.31018948     0.75100
O289        O  0.47027477  0.14075572  0.36884065    -0.58600
C290        C  0.50297243  0.21895553  0.32232485     0.75100
C291        C  0.47745348  0.15513820  0.23464361     0.77500
Cd292      Cd  0.50077077  0.17214490  0.31556747     1.37500
O293        O  0.54608813  0.18923995  0.31063670    -0.57500
O294        O  0.50074915  0.17166207  0.23971447    -0.56300
C295        C  0.48650357  0.15085308  0.39788252     0.77500
O296        O  0.46466140  0.14512405  0.26767257    -0.58700
O297        O  0.52148263  0.14865513  0.31019691    -0.57100
O298        O  0.48263546  0.19759339  0.32757138    -0.57100
O299        O  0.50779659  0.17024138  0.38846696    -0.56300
O300        O  0.54727358  0.19055156  0.65560720    -0.57500
C301        C  0.50106288  0.21653989  0.64605902     0.75100
O302        O  0.46948575  0.14223567  0.60068095    -0.58600
C303        C  0.54590748  0.16996223  0.66156814     0.75100
C304        C  0.47785483  0.15025667  0.73550736     0.77500
Cd305      Cd  0.50083397  0.17068301  0.65491199     1.37500
O306        O  0.52065914  0.21694435  0.65660620    -0.57500
O307        O  0.49837599  0.17137476  0.73004950    -0.56300
C308        C  0.48643421  0.14883416  0.57300160     0.77500
O309        O  0.46708381  0.13780293  0.70270880    -0.58700
O310        O  0.48148510  0.19489436  0.63934477    -0.57100
O311        O  0.52383319  0.15044838  0.66593227    -0.57100
O312        O  0.50904943  0.16419360  0.58425322    -0.56300
O313        O  0.59465289  0.89330151  0.94400995    -0.57500
C314        C  0.60655197  0.89435471  0.07393593     0.75100
O315        O  0.65860326  0.88832995  0.99629170    -0.58600
C316        C  0.60849202  0.90091434  0.91158658     0.75100
C317        C  0.66146857  0.95772581  0.99558575     0.77500
Cd318      Cd  0.62973899  0.90390713  0.99259996     1.37500
O319        O  0.59330722  0.88810391  0.04101315    -0.57500
O320        O  0.63778965  0.94532882  0.00175283    -0.56300
C321        C  0.64147250  0.86601083  0.98569301     0.77500
O322        O  0.67124264  0.94502866  0.98842266    -0.58700
O323        O  0.63003318  0.90403305  0.06880639    -0.57100
O324        O  0.63177719  0.90974185  0.91723077    -0.57100
O325        O  0.61958522  0.86163166  0.97964073    -0.56300
O326        O  0.60053732  0.69860832  0.02822928    -0.57500
C327        C  0.61507015  0.71099582  0.89991227     0.75100
O328        O  0.66290473  0.77441835  0.99174013    -0.58600
C329        C  0.61277368  0.70678706  0.06203186     0.75100
C330        C  0.67340858  0.71481345  0.97376039     0.77500
Cd331      Cd  0.63676807  0.72779186  0.98189210     1.37500
O332        O  0.60218063  0.70075329  0.93275847    -0.57500
O333        O  0.64979566  0.69880300  0.97195586    -0.56300
C334        C  0.64512368  0.77725717  0.98183784     0.77500
O335        O  0.68060120  0.73752523  0.98092644    -0.58700
O336        O  0.63789521  0.72892570  0.90543387    -0.57100
O337        O  0.63584066  0.72442910  0.05853455    -0.57100
O338        O  0.62415322  0.75747579  0.97239071    -0.56300
O339        O  0.91297278  0.58957480  0.92061993    -0.57500
C340        C  0.91415227  0.59825851  0.05051866     0.75100
O341        O  0.95764887  0.66544214  0.97668699    -0.58600
C342        C  0.90923851  0.59925125  0.88912381     0.75100
C343        C  0.88063366  0.63429111  0.98203585     0.77500
Cd344      Cd  0.91830844  0.62218580  0.97114866     1.37500
O345        O  0.90346865  0.58522656  0.01818780    -0.57500
O346        O  0.87606540  0.61233651  0.98771601    -0.56300
C347        C  0.97178555  0.65814118  0.96438933     0.77500
O348        O  0.90296735  0.65115081  0.97062965    -0.58700
O349        O  0.92723509  0.62195505  0.04529890    -0.57100
O350        O  0.90822743  0.61839844  0.89625729    -0.57100
O351        O  0.96095880  0.63502356  0.95540250    -0.56300
O352        O  0.71701018  0.59707536  0.94328846    -0.57500
C353        C  0.72472938  0.61517512  0.07391827     0.75100
O354        O  0.79143508  0.65887471  0.98751910    -0.58600
C355        C  0.72842962  0.60905664  0.91022205     0.75100
C356        C  0.73002707  0.66903516  0.97953183     0.77500
Cd357      Cd  0.74442351  0.63369913  0.99088195     1.37500
O358        O  0.71445716  0.60178069  0.04166202    -0.57500
O359        O  0.71511111  0.64537106  0.97622891    -0.56300
C360        C  0.79303805  0.64016562  0.99617075     0.77500
O361        O  0.75284603  0.67730374  0.98896917    -0.58700
O362        O  0.74375965  0.63724788  0.06736874    -0.57100
O363        O  0.74684546  0.63158046  0.91535407    -0.57100
O364        O  0.77241284  0.61916399  0.00207570    -0.56300
O365        O  0.35081902  0.90598024  0.93649458    -0.57500
C366        C  0.34113046  0.90749461  0.06659170     0.75100
O367        O  0.31651123  0.94675328  0.98565658    -0.58600
C368        C  0.34189691  0.90927021  0.90352877     0.75100
C369        C  0.27412987  0.86627368  0.98130020     0.77500
Cd370      Cd  0.32403128  0.91203432  0.98516452     1.37500
O371        O  0.35092230  0.90552682  0.03344660    -0.57500
O372        O  0.29439861  0.86675209  0.98364583    -0.56300
C373        C  0.33986613  0.96390943  0.98909539     0.77500
O374        O  0.27660598  0.88761433  0.98237098    -0.58700
O375        O  0.32368510  0.91154269  0.06154902    -0.57100
O376        O  0.32564718  0.91493557  0.90874021    -0.57100
O377        O  0.35521608  0.95687619  0.98957833    -0.56300
O378        O  0.13495946  0.69239349  0.92207660    -0.57500
C379        C  0.13066235  0.70059509  0.05200680     0.75100
O380        O  0.15473560  0.76791737  0.97171649    -0.58600
C381        C  0.13409944  0.70298860  0.88901322     0.75100
C382        C  0.07934503  0.70694673  0.96268703     0.77500
Cd383      Cd  0.13068856  0.72073048  0.97032417     1.37500
O384        O  0.13608711  0.69311923  0.01939822    -0.57500
O385        O  0.08626248  0.69185659  0.95602039    -0.56300
C386        C  0.17632579  0.77087133  0.97184958     0.77500
O387        O  0.09637245  0.72909834  0.97416861    -0.58700
O388        O  0.12505370  0.71675386  0.04617846    -0.57100
O389        O  0.13253025  0.72195734  0.89403828    -0.57100
O390        O  0.17625501  0.75079837  0.97095682    -0.56300
O391        O  0.90442228  0.33468398  0.92037570    -0.57500
C392        C  0.90600620  0.32578185  0.05095096     0.75100
O393        O  0.88937972  0.26177321  0.97271286    -0.58600
C394        C  0.91066269  0.32812003  0.88766678     0.75100
C395        C  0.96255899  0.32310637  0.97871432     0.77500
Cd396      Cd  0.91124171  0.30854316  0.96983337     1.37500
O397        O  0.90501558  0.33597046  0.01755136    -0.57500
O398        O  0.95578931  0.33859265  0.98113470    -0.56300
C399        C  0.86737091  0.25750361  0.96854928     0.77500
O400        O  0.94552176  0.30044122  0.96989725    -0.58700
O401        O  0.90918765  0.30779999  0.04637550    -0.57100
O402        O  0.91755682  0.31287467  0.89324218    -0.57100
O403        O  0.86604557  0.27669455  0.96466014    -0.56300
O404        O  0.69361203  0.11949781  0.03172329    -0.57500
C405        C  0.70250416  0.11993336  0.90082806     0.75100
O406        O  0.76903463  0.13944462  0.97642216    -0.58600
C407        C  0.70574308  0.12051684  0.06402372     0.75100
C408        C  0.70675952  0.06490570  0.98829041     0.77500
Cd409      Cd  0.72185965  0.11643076  0.98116953     1.37500
O410        O  0.69716255  0.12658420  0.93441888    -0.57500
O411        O  0.69127284  0.07176381  0.98864400    -0.56300
C412        C  0.77203950  0.16097692  0.97398076     0.77500
O413        O  0.72992861  0.08203065  0.98238334    -0.58700
O414        O  0.71560761  0.11038324  0.90486719    -0.57100
O415        O  0.72548260  0.12039769  0.05751081    -0.57100
O416        O  0.75224304  0.16139977  0.97639145    -0.56300
O417        O  0.44243923  0.32697876  0.02642593    -0.57500
C418        C  0.43110484  0.31921960  0.89575037     0.75100
O419        O  0.37982181  0.25385467  0.97876270    -0.58600
C420        C  0.42864031  0.31910898  0.05889052     0.75100
C421        C  0.37502534  0.31948542  0.96857258     0.77500
Cd422      Cd  0.40763588  0.30125558  0.97643439     1.37500
O423        O  0.44389796  0.32789421  0.92900918    -0.57500
O424        O  0.39893475  0.33370241  0.96785859    -0.56300
C425        C  0.39811602  0.25120063  0.97194039     0.77500
O426        O  0.36557361  0.29603920  0.97405563    -0.58700
O427        O  0.40776452  0.30245052  0.90046855    -0.57100
O428        O  0.40535280  0.30294066  0.05289194    -0.57100
O429        O  0.41989711  0.27123885  0.96889507    -0.56300
O430        O  0.45117550  0.13817780  0.93678826    -0.57500
C431        C  0.43736128  0.13647690  0.06590191     0.75100
O432        O  0.38483809  0.13967937  0.98605199    -0.58600
C433        C  0.43808205  0.12985090  0.90378314     0.75100
C434        C  0.38468624  0.07128541  0.98762185     0.77500
Cd435      Cd  0.41479732  0.12526391  0.98371565     1.37500
O436        O  0.45033350  0.14007645  0.03328294    -0.57500
O437        O  0.40836480  0.08439830  0.99346775    -0.56300
C438        C  0.40155425  0.16221207  0.97546869     0.77500
O439        O  0.37417627  0.08326469  0.98021042    -0.58700
O440        O  0.41422036  0.12825217  0.06006459    -0.57100
O441        O  0.41438638  0.11923683  0.90827723    -0.57100
O442        O  0.42356317  0.16701390  0.96855028    -0.56300
O443        O  0.33147725  0.44021004  0.93592039    -0.57500
C444        C  0.32138414  0.42271725  0.06741056     0.75100
O445        O  0.25742913  0.37732012  0.98765749    -0.58600
C446        C  0.32251088  0.42734034  0.90271148     0.75100
C447        C  0.32208874  0.37014337  0.97451301     0.77500
Cd448      Cd  0.30485807  0.40360436  0.98351551     1.37500
O449        O  0.33195036  0.43663530  0.03559956    -0.57500
O450        O  0.33675195  0.39394872  0.97563176    -0.56300
C451        C  0.25534800  0.39588239  0.98033513     0.77500
O452        O  0.29853616  0.36108383  0.97828151    -0.58700
O453        O  0.30341635  0.40029521  0.05996634    -0.57100
O454        O  0.30582092  0.40411363  0.90775711    -0.57100
O455        O  0.27579835  0.41710739  0.97496392    -0.56300
O456        O  0.13276689  0.43829958  0.02863360    -0.57500
C457        C  0.12602734  0.42643078  0.89903246     0.75100
O458        O  0.14183979  0.37812069  0.98100812    -0.58600
C459        C  0.12892822  0.42535880  0.06141579     0.75100
C460        C  0.06955882  0.36911189  0.98497541     0.77500
Cd461      Cd  0.12289670  0.40396733  0.97950609     1.37500
O462        O  0.13274294  0.43926390  0.93230666    -0.57500
O463        O  0.08071038  0.39249100  0.99214419    -0.56300
C464        C  0.16429811  0.39702441  0.97557678     0.77500
O465        O  0.08340216  0.36101158  0.97482258    -0.58700
O466        O  0.11747417  0.40316970  0.90339650    -0.57100
O467        O  0.12337890  0.40306915  0.05585148    -0.57100
O468        O  0.16706825  0.41836523  0.97281012    -0.56300
C469        C  0.22936055  0.41046996  0.95039779    -0.08800
C470        C  0.23071559  0.39363436  0.97716606     0.07400
C471        C  0.20925445  0.37661289  0.00142273    -0.02600
C472        C  0.18724744  0.37709346  0.99897576    -0.07000
C473        C  0.18642146  0.39473141  0.97343593     0.06500
C474        C  0.20765700  0.41123948  0.94841974    -0.02100
Br475      Br  0.20828874  0.43511769  0.91029866    -0.01800
H476        H  0.24551231  0.42346537  0.93113444     0.10400
H477        H  0.17119816  0.36452115  0.01872891     0.08400
Br478      Br  0.20966977  0.35431756  0.04162388    -0.02200
C479        C  0.33625809  0.31905047  0.98639213    -0.08800
C480        C  0.35931173  0.33018569  0.96455268     0.07400
C481        C  0.36795654  0.35263767  0.94180091    -0.02600
C482        C  0.35485784  0.36464701  0.94445310    -0.07000
C483        C  0.33273287  0.35448656  0.96859105     0.06500
C484        C  0.32284641  0.33091125  0.98839472    -0.02100
Br485      Br  0.29247076  0.31502351  0.02137241    -0.01800
H486        H  0.32922158  0.30163845  0.00361179     0.10400
H487        H  0.36223288  0.38230434  0.92781795     0.08400
Br488      Br  0.39703809  0.36756069  0.90550193    -0.02200
C489        C  0.37960430  0.20683000  0.99650167    -0.08800
C490        C  0.39493124  0.22630192  0.96807256     0.07400
C491        C  0.40932672  0.22267915  0.93868809    -0.02600
C492        C  0.41020053  0.20109419  0.94070679    -0.07000
C493        C  0.39643440  0.18239668  0.97105010     0.06500
C494        C  0.38017422  0.18488623  0.99811772    -0.02100
Br495      Br  0.36027563  0.16032373  0.04039139    -0.01800
H496        H  0.36826953  0.20927763  0.01898477     0.10400
H497        H  0.42214272  0.19913746  0.91878287     0.08400
Br498      Br  0.42785146  0.24641925  0.89450597    -0.02200
C499        C  0.00026768  0.32182124  0.96041196    -0.08800
C500        C  0.98913244  0.33147439  0.98543066     0.07400
C501        C  0.00412372  0.35041700  0.01478574    -0.02600
C502        C  0.03010321  0.36093663  0.01596244    -0.07000
C503        C  0.04173349  0.35303923  0.98831416     0.06500
C504        C  0.02647895  0.33246835  0.96157683    -0.02100
Br505      Br  0.04036110  0.31975047  0.92329297    -0.01800
H506        H  0.98880085  0.30695726  0.93818665     0.10400
H507        H  0.04147145  0.37616714  0.03768236     0.08400
Br508      Br  0.99040266  0.36286859  0.05415975    -0.02200
C509        C  0.82325711  0.22821454  0.94545519    -0.08800
C510        C  0.84412907  0.23173723  0.96764911     0.07400
C511        C  0.84164022  0.21102658  0.98951688    -0.02600
C512        C  0.81828527  0.18766303  0.98975614    -0.07000
C513        C  0.79716970  0.18464952  0.96903002     0.06500
C514        C  0.80002984  0.20506558  0.94586786    -0.02100
Br515      Br  0.77318073  0.20252500  0.91309694    -0.01800
H516        H  0.82492354  0.24370277  0.92779821     0.10400
H517        H  0.81631474  0.17216962  0.00778054     0.08400
Br518      Br  0.86843079  0.21388908  0.02271791    -0.02200
C519        C  0.33917211  0.00114721  0.96569367    -0.08800
C520        C  0.34915709  0.99089531  0.99201401     0.07400
C521        C  0.36923877  0.00699309  0.01895913    -0.02600
C522        C  0.37985924  0.03295642  0.01760912    -0.07000
C523        C  0.37069795  0.04347495  0.99012452     0.06500
C524        C  0.34982956  0.02729011  0.96440340    -0.02100
Br525      Br  0.33662993  0.03980161  0.92435185    -0.01800
H526        H  0.32378513  0.98891984  0.94472293     0.10400
H527        H  0.39557179  0.04506869  0.03813025     0.08400
Br528      Br  0.38236579  0.99456907  0.05946818    -0.02200
C529        C  0.22307143  0.79661758  0.96603009    -0.08800
C530        C  0.20070430  0.79599863  0.97292690     0.07400
C531        C  0.20268399  0.81903041  0.98120733    -0.02600
C532        C  0.22668974  0.84165556  0.98352771    -0.07000
C533        C  0.24905343  0.84203441  0.97753128     0.06500
C534        C  0.24689622  0.81906154  0.96793311    -0.02100
Br535      Br  0.27519868  0.81627283  0.95542876    -0.01800
H536        H  0.22214762  0.77937720  0.95883259     0.10400
H537        H  0.22783554  0.85902176  0.99051514     0.08400
Br538      Br  0.17380457  0.82123560  0.99055993    -0.02200
C539        C  0.01109514  0.66921647  0.92878249    -0.08800
C540        C  0.99953802  0.67494877  0.96023740     0.07400
C541        C  0.01489544  0.69419628  0.98907752    -0.02600
C542        C  0.04129541  0.70586897  0.98775413    -0.07000
C543        C  0.05253158  0.69844762  0.95828514     0.06500
C544        C  0.03724619  0.68071801  0.92751271    -0.02100
Br545      Br  0.05074521  0.67106060  0.88305443    -0.01800
H546        H  0.99957980  0.65492560  0.90576111     0.10400
H547        H  0.05287620  0.71956479  0.01146598     0.08400
Br548      Br  0.00096774  0.70331625  0.03352227    -0.02200
C549        C  0.84251527  0.62559658  0.02022367    -0.08800
C550        C  0.86055929  0.63936538  0.98890410     0.07400
C551        C  0.85781349  0.65604686  0.96360372    -0.02600
C552        C  0.83635027  0.65728365  0.96815290    -0.07000
C553        C  0.81747886  0.64211469  0.99757683     0.06500
C554        C  0.82125317  0.62698033  0.02496502    -0.02100
Br555      Br  0.79828256  0.60808826  0.06988880    -0.01800
H556        H  0.84474355  0.61330556  0.04079112     0.10400
H557        H  0.83371414  0.66905030  0.94700901     0.08400
Br558      Br  0.88114174  0.67558535  0.91960102    -0.02200
C559        C  0.71267959  0.71733147  0.99475228    -0.08800
C560        C  0.69128680  0.70685196  0.96891598     0.07400
C561        C  0.68580259  0.68688868  0.94196149    -0.02600
C562        C  0.70042494  0.67654876  0.94361625    -0.07000
C563        C  0.72023072  0.68524026  0.97237922     0.06500
C564        C  0.72705568  0.70651095  0.99704867    -0.02100
Br565      Br  0.75336727  0.71947269  0.03807204    -0.01800
H566        H  0.71707521  0.73272784  0.01551834     0.10400
H567        H  0.69533880  0.66057258  0.92375811     0.08400
Br568      Br  0.65804382  0.67209674  0.90324345    -0.02200
C569        C  0.66718214  0.99684339  0.02310861    -0.08800
C570        C  0.67619355  0.98558184  0.99702480     0.07400
C571        C  0.69721627  0.00108323  0.97084587    -0.02600
C572        C  0.70796664  0.02724812  0.96993904    -0.07000
C573        C  0.69778992  0.03814218  0.99423313     0.06500
C574        C  0.67772221  0.02277682  0.02200066    -0.02100
Br575      Br  0.66400665  0.03603003  0.05974154    -0.01800
H576        H  0.65137293  0.98527942  0.04400491     0.10400
H577        H  0.72341555  0.03891240  0.94849458     0.08400
Br578      Br  0.71029681  0.98755579  0.93256049    -0.02200
C579        C  0.66043971  0.84250975  0.01107639    -0.08800
C580        C  0.64616171  0.84566392  0.98105559     0.07400
C581        C  0.63448961  0.82782747  0.94878343    -0.02600
C582        C  0.63524215  0.80617449  0.94907532    -0.07000
C583        C  0.64807680  0.80208659  0.98050315     0.06500
C584        C  0.66159194  0.82091964  0.01091810    -0.02100
Br585      Br  0.67993189  0.81720145  0.05493346    -0.01800
H586        H  0.66965770  0.85620044  0.03584140     0.10400
H587        H  0.62547170  0.79226510  0.92472995     0.08400
Br588      Br  0.61792609  0.83243016  0.90269574    -0.02200
C589        C  0.48397072  0.15480701  0.81194964    -0.08800
C590        C  0.46765849  0.14163678  0.77841468     0.07400
C591        C  0.44222597  0.12235018  0.78731588    -0.02600
C592        C  0.43341797  0.11815657  0.82860752    -0.07000
C593        C  0.44940102  0.13267526  0.86177138     0.06500
C594        C  0.47523853  0.15063218  0.85306881    -0.02100
Br595      Br  0.49958073  0.17180512  0.89463310    -0.01800
H596        H  0.50373027  0.16929068  0.80612325     0.10400
H597        H  0.41362532  0.10385948  0.83461621     0.08400
Br598      Br  0.41800798  0.10202340  0.74506877    -0.02200
C599        C  0.48305066  0.15669218  0.15775778    -0.08800
C600        C  0.46638786  0.14873638  0.19202457     0.07400
C601        C  0.44018075  0.13672039  0.18421796    -0.02600
C602        C  0.43138095  0.13290705  0.14307936    -0.07000
C603        C  0.44809181  0.14106310  0.10877882     0.06500
C604        C  0.47432465  0.15321899  0.11668494    -0.02100
Br605      Br  0.49976384  0.16686058  0.07367047    -0.01800
H606        H  0.50326662  0.16619004  0.16285481     0.10400
H607        H  0.41119665  0.12368003  0.13800602     0.08400
Br608      Br  0.41533522  0.12637576  0.22768214    -0.02200
C609        C  0.46087041  0.13866817  0.46315628    -0.08800
C610        C  0.48160684  0.14154562  0.44120699     0.07400
C611        C  0.50044455  0.14065901  0.46319550    -0.02600
C612        C  0.50004232  0.14017741  0.50663177    -0.07000
C613        C  0.48108688  0.14061608  0.52899461     0.06500
C614        C  0.46045033  0.13819024  0.50695579    -0.02100
Br615      Br  0.43316405  0.13782374  0.53449446    -0.01800
H616        H  0.44618721  0.13916882  0.44648422     0.10400
H617        H  0.51568266  0.14131445  0.52302022     0.08400
Br618      Br  0.52823162  0.14199590  0.43531831    -0.02200
C619        C  0.70028839  0.12222924  0.18277801    -0.08800
C620        C  0.68227434  0.12866216  0.18677905     0.07400
C621        C  0.67069998  0.13035673  0.15032315    -0.02600
C622        C  0.67833196  0.12716377  0.11108450    -0.07000
C623        C  0.69739482  0.12212757  0.10680018     0.06500
C624        C  0.70793008  0.11897339  0.14350883    -0.02100
Br625      Br  0.73275750  0.11019609  0.14318975    -0.01800
H626        H  0.70923299  0.12062341  0.21035939     0.10400
H627        H  0.66948414  0.12906218  0.08364547     0.08400
Br628      Br  0.64385447  0.13632689  0.15166709    -0.02200
C629        C  0.61090528  0.18283901  0.32137848    -0.08800
C630        C  0.60775413  0.16001736  0.30870878     0.07400
C631        C  0.58336086  0.13982528  0.29677378    -0.02600
C632        C  0.56297207  0.14293719  0.29759104    -0.07000
C633        C  0.56622825  0.16591101  0.30984453     0.06500
C634        C  0.59059858  0.18596379  0.32219588    -0.02100
Br635      Br  0.59779316  0.21787427  0.34240426    -0.01800
H636        H  0.62936108  0.19845601  0.33120059     0.10400
H637        H  0.54446763  0.12731189  0.28799772     0.08400
Br638      Br  0.57648529  0.10792415  0.27716676    -0.02200
C639        C  0.68069997  0.14389462  0.81150509    -0.08800
C640        C  0.68532418  0.13359206  0.77645496     0.07400
C641        C  0.69414331  0.11752670  0.78309834    -0.02600
C642        C  0.69871589  0.11276211  0.82379419    -0.07000
C643        C  0.69476525  0.12366026  0.85882274     0.06500
C644        C  0.68520883  0.13913721  0.85213747    -0.02100
Br645      Br  0.67891388  0.15563214  0.89622152    -0.01800
H646        H  0.67385642  0.15622192  0.80732099     0.10400
H647        H  0.70604132  0.10084665  0.82790087     0.08400
Br648      Br  0.70215597  0.10288403  0.73829986    -0.02200
C649        C  0.65160171  0.12097412  0.45825756    -0.08800
C650        C  0.67482645  0.13460695  0.43675594     0.07400
C651        C  0.69747675  0.14577756  0.45985065    -0.02600
C652        C  0.69664745  0.14538436  0.50339266    -0.07000
C653        C  0.67352586  0.13405529  0.52526606     0.06500
C654        C  0.65072188  0.12056676  0.50208676    -0.02100
Br655      Br  0.61772239  0.10234826  0.52753739    -0.01800
H656        H  0.63400466  0.11194894  0.44100851     0.10400
H657        H  0.71443798  0.15521555  0.52013743     0.08400
Br658      Br  0.73031612  0.16239240  0.43381673    -0.02200
C659        C  0.59294558  0.19144126  0.66130649    -0.08800
C660        C  0.56885773  0.16879203  0.66261574     0.07400
C661        C  0.56741175  0.14562171  0.66349839    -0.02600
C662        C  0.58957759  0.14561120  0.66325202    -0.07000
C663        C  0.61363328  0.16815986  0.66137402     0.06500
C664        C  0.61518029  0.19137777  0.66051555    -0.02100
Br665      Br  0.64667951  0.22378016  0.65859670    -0.01800
H666        H  0.59458096  0.20942495  0.66056995     0.10400
H667        H  0.58784296  0.12756982  0.66358134     0.08400
Br668      Br  0.53619022  0.11290472  0.66307023    -0.02200
C669        C  0.47775088  0.34948146  0.80478015    -0.08800
C670        C  0.46135251  0.33965738  0.77030722     0.07400
C671        C  0.43498723  0.32430764  0.77777781    -0.02600
C672        C  0.42582508  0.31847443  0.81876329    -0.07000
C673        C  0.44226792  0.32764590  0.85326844     0.06500
C674        C  0.46860161  0.34382467  0.84576816    -0.02100
Br675      Br  0.49354066  0.35857033  0.88922344    -0.01800
H676        H  0.49805250  0.36149416  0.79991148     0.10400
H677        H  0.40553094  0.30625059  0.82352909     0.08400
Br678      Br  0.41026443  0.30944617  0.73405982    -0.02200
C679        C  0.52216417  0.26268078  0.65878701    -0.08800
C680        C  0.50111803  0.24010566  0.64321773     0.07400
C681        C  0.48053472  0.24066458  0.62692917    -0.02600
C682        C  0.48089961  0.26299610  0.62853753    -0.07000
C683        C  0.50165913  0.28532193  0.64502051     0.06500
C684        C  0.52268509  0.28512800  0.65965720    -0.02100
Br685      Br  0.55208682  0.31426008  0.68352618    -0.01800
H686        H  0.53824925  0.26285131  0.67124418     0.10400
H687        H  0.46484982  0.26295409  0.61624654     0.08400
Br688      Br  0.45159053  0.21227939  0.60059673    -0.02200
C689        C  0.72745372  0.59831033  0.79268373    -0.08800
C690        C  0.70375184  0.57578167  0.78733468     0.07400
C691        C  0.68813859  0.56427193  0.82277041    -0.02600
C692        C  0.69652650  0.57527506  0.86231945    -0.07000
C693        C  0.72049285  0.59769273  0.86778105     0.06500
C694        C  0.73605906  0.60910696  0.83211578    -0.02100
Br695      Br  0.77004106  0.63852941  0.83437620    -0.01800
H696        H  0.73995570  0.60711239  0.76608883     0.10400
H697        H  0.68410534  0.56627517  0.88890956     0.08400
Br698      Br  0.65477578  0.53413484  0.81907178    -0.02200
C699        C  0.59665978  0.46965142  0.64425002    -0.08800
C700        C  0.61677641  0.46963670  0.66320653     0.07400
C701        C  0.61239638  0.44659391  0.67861810    -0.02600
C702        C  0.58876489  0.42423052  0.67308752    -0.07000
C703        C  0.56878288  0.42416266  0.65362863     0.06500
C704        C  0.57278709  0.44729337  0.63962588    -0.02100
Br705      Br  0.54705386  0.44971735  0.61232158    -0.01800
H706        H  0.59958210  0.48711296  0.63228198     0.10400
H707        H  0.58582336  0.40676055  0.68510188     0.08400
Br708      Br  0.63698207  0.44415627  0.70995859    -0.02200
C709        C  0.43572794  0.32945918  0.17696484    -0.08800
C710        C  0.46212679  0.34246104  0.18145112     0.07400
C711        C  0.47731026  0.34951940  0.14511823    -0.02600
C712        C  0.46593102  0.34223324  0.10585471    -0.07000
C713        C  0.43944561  0.32795754  0.10135944     0.06500
C714        C  0.42429118  0.32217642  0.13763318    -0.02100
Br715      Br  0.38795638  0.30449285  0.13664986    -0.01800
H716        H  0.42376870  0.32414204  0.20438596     0.10400
H717        H  0.47802730  0.34746037  0.07863111     0.08400
Br718      Br  0.51373197  0.36966854  0.14632286    -0.02200
C719        C  0.47929246  0.37296546  0.50046961    -0.08800
C720        C  0.47004051  0.34980042  0.52082303     0.07400
C721        C  0.45773150  0.32741971  0.49704033    -0.02600
C722        C  0.45721632  0.32872356  0.45353800    -0.07000
C723        C  0.46919329  0.35212261  0.43272484     0.06500
C724        C  0.47907815  0.37433160  0.45680802    -0.02100
Br725      Br  0.49352605  0.40720464  0.43225142    -0.01800
H726        H  0.48840626  0.39029422  0.51830449     0.10400
H727        H  0.44905883  0.31137819  0.43592219     0.08400
Br728      Br  0.44215414  0.29452052  0.52209511    -0.02200
C729        C  0.52167236  0.28708207  0.30763968    -0.08800
C730        C  0.49973037  0.28547407  0.32178798     0.07400
C731        C  0.47991298  0.26252785  0.33914745    -0.02600
C732        C  0.48174514  0.24143273  0.33975287    -0.07000
C733        C  0.50324163  0.24262886  0.32390443     0.06500
C734        C  0.52367216  0.26607369  0.30858206    -0.02100
Br735      Br  0.55451006  0.27099685  0.28672931    -0.01800
H736        H  0.53717392  0.30466687  0.29462893     0.10400
H737        H  0.46612466  0.22391610  0.35272063     0.08400
Br738      Br  0.45046909  0.25902855  0.36455616    -0.02200
C739        C  0.69398457  0.58018080  0.12056906    -0.08800
C740        C  0.71524816  0.60501021  0.11668864     0.07400
C741        C  0.72718700  0.61866400  0.15366773    -0.02600
C742        C  0.71886940  0.60670229  0.19265157    -0.07000
C743        C  0.69861646  0.58135045  0.19603086     0.06500
C744        C  0.68553915  0.56842721  0.15945927    -0.02100
Br745      Br  0.65554121  0.53486954  0.16016894    -0.01800
H746        H  0.68394705  0.56951490  0.09302647     0.10400
H747        H  0.72897920  0.61703889  0.22038724     0.08400
Br748      Br  0.75515856  0.65338086  0.15412627    -0.02200
C749        C  0.71552421  0.56588186  0.46662921    -0.08800
C750        C  0.69444558  0.56284081  0.44565241     0.07400
C751        C  0.67491802  0.56166708  0.46969310    -0.02600
C752        C  0.67592760  0.56140910  0.51360661    -0.07000
C753        C  0.69604055  0.56212580  0.53412358     0.06500
C754        C  0.71642274  0.56543217  0.51007005    -0.02100
Br755      Br  0.74591933  0.56876770  0.53474165    -0.01800
H756        H  0.73107363  0.56749706  0.44910387     0.10400
H757        H  0.66014224  0.55892140  0.53160467     0.08400
Br758      Br  0.64533980  0.55797161  0.44494131    -0.02200
C759        C  0.61388186  0.44751148  0.29853384    -0.08800
C760        C  0.61457044  0.46949795  0.30909183     0.07400
C761        C  0.59143129  0.46746116  0.31722731    -0.02600
C762        C  0.56851582  0.44402854  0.31405081    -0.07000
C763        C  0.56783294  0.42206905  0.30374629     0.06500
C764        C  0.59092756  0.42398584  0.29586468    -0.02100
Br765      Br  0.59272535  0.39566953  0.27984809    -0.01800
H766        H  0.63134263  0.44859185  0.29195057     0.10400
H767        H  0.55105226  0.44290663  0.32087824     0.08400
Br768      Br  0.58933029  0.49525744  0.33536922    -0.02200
C769        C  0.88837716  0.35278080  0.14136396    -0.08800
C770        C  0.89439642  0.34337696  0.17605058     0.07400
C771        C  0.90631232  0.33014123  0.16901766    -0.02600
C772        C  0.91055508  0.32544792  0.12812342    -0.07000
C773        C  0.90339552  0.33380204  0.09335216     0.06500
C774        C  0.89288309  0.34835704  0.10050036    -0.02100
Br775      Br  0.88283962  0.36174373  0.05650780    -0.01800
H776        H  0.87953730  0.36329215  0.14598032     0.10400
H777        H  0.91906198  0.31462130  0.12356836     0.08400
Br778      Br  0.91565447  0.31626960  0.21326307    -0.02200
C779        C  0.77220882  0.27489648  0.28338817    -0.08800
C780        C  0.79342673  0.27692664  0.30199254     0.07400
C781        C  0.79060383  0.25542110  0.32135367    -0.02600
C782        C  0.76706768  0.23250509  0.32104244    -0.07000
C783        C  0.74590708  0.23037639  0.30208652     0.06500
C784        C  0.74863446  0.25191439  0.28304333    -0.02100
Br785      Br  0.72161526  0.25101227  0.25359177    -0.01800
H786        H  0.77408441  0.29115800  0.26812020     0.10400
H787        H  0.76522895  0.21627441  0.33637662     0.08400
Br788      Br  0.81749766  0.25610891  0.35093690    -0.02200
C789        C  0.91823557  0.60315294  0.12754236    -0.08800
C790        C  0.91066988  0.58702393  0.09280919     0.07400
C791        C  0.89844840  0.56077918  0.09994312    -0.02600
C792        C  0.89236340  0.55127619  0.14070691    -0.07000
C793        C  0.89847828  0.56731090  0.17523141     0.06500
C794        C  0.91231205  0.59366638  0.16829793    -0.02100
Br795      Br  0.92191010  0.61787076  0.21221296    -0.01800
H796        H  0.92793795  0.62340363  0.12305367     0.10400
H797        H  0.88231533  0.53100390  0.14534810     0.08400
Br798      Br  0.88956806  0.53668680  0.05606641    -0.02200
C799        C  0.80081076  0.55814336  0.29746814    -0.08800
C800        C  0.79767848  0.53458249  0.29093545     0.07400
C801        C  0.77281737  0.51300293  0.28629897    -0.02600
C802        C  0.75202225  0.51531689  0.28972852    -0.07000
C803        C  0.75517372  0.53877229  0.29732021     0.06500
C804        C  0.78003571  0.56047571  0.30063009    -0.02100
Br805      Br  0.78754031  0.59384985  0.31136984    -0.01800
H806        H  0.81962329  0.57498491  0.30100971     0.10400
H807        H  0.73316043  0.49850201  0.28647752     0.08400
Br808      Br  0.76528222  0.47967379  0.27518375    -0.02200
C809        C  0.88516125  0.46286122  0.29752353    -0.08800
C810        C  0.86183530  0.46086434  0.29885732     0.07400
C811        C  0.83930593  0.43648626  0.30132306    -0.02600
C812        C  0.84071317  0.41507493  0.30230731    -0.07000
C813        C  0.86413903  0.41716383  0.30047211     0.06500
C814        C  0.88658755  0.44158761  0.29814024    -0.02100
Br815      Br  0.92018431  0.44810719  0.29529382    -0.01800
H816        H  0.90272545  0.48128151  0.29568027     0.10400
H817        H  0.82322152  0.39658796  0.30407699     0.08400
Br818      Br  0.80594864  0.43059568  0.30292365    -0.02200
C819        C  0.89786826  0.35888404  0.79658299    -0.08800
C820        C  0.90172856  0.34764058  0.76207580     0.07400
C821        C  0.91105019  0.33205512  0.76929883    -0.02600
C822        C  0.91458381  0.32676634  0.81026573    -0.07000
C823        C  0.90930246  0.33684733  0.84496446     0.06500
C824        C  0.90173720  0.35391087  0.83749459    -0.02100
Br825      Br  0.89596496  0.37109459  0.88102611    -0.01800
H826        H  0.89122754  0.37134106  0.79180628     0.10400
H827        H  0.92082164  0.31397155  0.81490617     0.08400
Br828      Br  0.91769954  0.31585769  0.72522501    -0.02200
C829        C  0.90747037  0.37313839  0.49103694    -0.08800
C830        C  0.89375580  0.35005989  0.51279851     0.07400
C831        C  0.88212872  0.32733931  0.48990308    -0.02600
C832        C  0.88193806  0.32802832  0.44639377    -0.07000
C833        C  0.89321459  0.35103126  0.42463334     0.06500
C834        C  0.90725865  0.37382149  0.44727379    -0.02100
Br835      Br  0.92362928  0.40642516  0.42101206    -0.01800
H836        H  0.91662592  0.39077113  0.50803851     0.10400
H837        H  0.87163046  0.31034762  0.42951838     0.08400
Br838      Br  0.86521900  0.29462219  0.51598529    -0.02200
C839        C  0.79584528  0.25987093  0.66502929    -0.08800
C840        C  0.79804947  0.27996582  0.64218279     0.07400
C841        C  0.77669211  0.27601781  0.62042529    -0.02600
C842        C  0.75362052  0.25259471  0.62303763    -0.07000
C843        C  0.75134145  0.23264468  0.64648779     0.06500
C844        C  0.77286184  0.23644665  0.66749878    -0.02100
Br845      Br  0.77206443  0.21123811  0.70241199    -0.01800
H846        H  0.81201426  0.26253812  0.68196433     0.10400
H847        H  0.73743449  0.24985771  0.60607143     0.08400
Br848      Br  0.77797747  0.30109720  0.58459336    -0.02200
C849        C  0.91195052  0.56536725  0.79216431    -0.08800
C850        C  0.89937087  0.57128592  0.76292455     0.07400
C851        C  0.89023294  0.58628389  0.77547505    -0.02600
C852        C  0.89365574  0.59500052  0.81651583    -0.07000
C853        C  0.90613522  0.58910640  0.84609775     0.06500
C854        C  0.91577323  0.57444411  0.83324352    -0.02100
Br855      Br  0.93550124  0.56725500  0.86907524    -0.01800
H856        H  0.91897511  0.55378816  0.78292772     0.10400
H857        H  0.88603388  0.60610204  0.82549734     0.08400
Br858      Br  0.87089490  0.59361420  0.73890691    -0.02200
C859        C  0.80444738  0.55665231  0.65203200    -0.08800
C860        C  0.80213248  0.53336430  0.65709424     0.07400
C861        C  0.77801160  0.51177592  0.66686386    -0.02600
C862        C  0.75700649  0.51384360  0.67010715    -0.07000
C863        C  0.75931889  0.53712190  0.66443724     0.06500
C864        C  0.78360649  0.55880846  0.65576504    -0.02100
Br865      Br  0.79040192  0.59217560  0.64789952    -0.01800
H866        H  0.82272630  0.57355068  0.64488458     0.10400
H867        H  0.73867913  0.49700548  0.67720127     0.08400
Br868      Br  0.77204751  0.47895657  0.67714717    -0.02200
C869        C  0.87608413  0.56404627  0.49160898    -0.08800
C870        C  0.89099541  0.55707549  0.51229294     0.07400
C871        C  0.90660627  0.55198690  0.48852885    -0.02600
C872        C  0.90534769  0.55181721  0.44472956    -0.07000
C873        C  0.88859509  0.55656666  0.42433472     0.06500
C874        C  0.87489914  0.56398104  0.44814629    -0.02100
Br875      Br  0.85347986  0.57327670  0.42274944    -0.01800
H876        H  0.86423653  0.56833297  0.50946071     0.10400
H877        H  0.91592098  0.54599553  0.42682768     0.08400
Br878      Br  0.92716444  0.54180070  0.51425833    -0.02200
C879        C  0.88700518  0.46328252  0.61558706    -0.08800
C880        C  0.87002879  0.46478131  0.64185791     0.07400
C881        C  0.85309636  0.44371773  0.66679078    -0.02600
C882        C  0.85326484  0.42168222  0.66466347    -0.07000
C883        C  0.87032131  0.42018357  0.63849778     0.06500
C884        C  0.88726704  0.44130886  0.61355144    -0.02100
Br885      Br  0.91040033  0.44122795  0.57446428    -0.01800
H886        H  0.89996031  0.47923168  0.59594223     0.10400
H887        H  0.84038927  0.40581994  0.68451646     0.08400
Br888      Br  0.83070461  0.44442850  0.70672035    -0.02200
C889        C  0.59755873  0.89913962  0.19049645    -0.08800
C890        C  0.57194591  0.87976746  0.19606076     0.07400
C891        C  0.55780617  0.86572755  0.16064813    -0.02600
C892        C  0.56940420  0.87124271  0.12139576    -0.07000
C893        C  0.59510512  0.89021377  0.11608280     0.06500
C894        C  0.60918443  0.90444363  0.15122196    -0.02100
Br895      Br  0.64409102  0.93199784  0.14803286    -0.01800
H896        H  0.60877009  0.91021498  0.21695145     0.10400
H897        H  0.55832480  0.86005962  0.09491987     0.08400
Br898      Br  0.52299181  0.83776486  0.16276122    -0.02200
C899        C  0.33826422  0.90969360  0.14371406    -0.08800
C900        C  0.34895757  0.90496341  0.10924574     0.07400
C901        C  0.36575311  0.89705809  0.11693488    -0.02600
C902        C  0.37033180  0.89293183  0.15797844    -0.07000
C903        C  0.35865557  0.89652855  0.19225806     0.06500
C904        C  0.34287423  0.90559981  0.18468078    -0.02100
Br905      Br  0.32519603  0.91091045  0.22805250    -0.01800
H906        H  0.32553101  0.91600596  0.13887588     0.10400
H907        H  0.38266067  0.88615442  0.16301718     0.08400
Br908      Br  0.38233502  0.89029420  0.07353800    -0.02200
C909        C  0.45120331  0.88319724  0.32363304    -0.08800
C910        C  0.42721748  0.86062618  0.32031995     0.07400
C911        C  0.42575094  0.83743730  0.31989449    -0.02600
C912        C  0.44795105  0.83741877  0.32122402    -0.07000
C913        C  0.47193793  0.86001983  0.32359730     0.06500
C914        C  0.47335985  0.88313812  0.32569082    -0.02100
Br915      Br  0.50450451  0.91536904  0.33344333    -0.01800
H916        H  0.45283992  0.90118182  0.32483168     0.10400
H917        H  0.44636172  0.81945094  0.32021622     0.08400
Br918      Br  0.39440584  0.80487494  0.31893575    -0.02200
C919        C  0.56538789  0.89144200  0.82006167    -0.08800
C920        C  0.58021270  0.89282953  0.78602139     0.07400
C921        C  0.60469695  0.89806239  0.79375092    -0.02600
C922        C  0.61356279  0.90135817  0.83469618    -0.07000
C923        C  0.59843565  0.89912324  0.86891711     0.06500
C924        C  0.57416362  0.89452272  0.86110378    -0.02100
Br925      Br  0.55189461  0.89226846  0.90442230    -0.01800
H926        H  0.54652173  0.88744432  0.81476982     0.10400
H927        H  0.63219150  0.90471576  0.83979298     0.08400
Br928      Br  0.62605247  0.89827091  0.75068927    -0.02200
C929        C  0.56583672  0.90039513  0.51209687    -0.08800
C930        C  0.56947588  0.88374038  0.53525153     0.07400
C931        C  0.57475118  0.86759353  0.51390314    -0.02600
C932        C  0.57342522  0.86623393  0.47045256    -0.07000
C933        C  0.56725458  0.88102580  0.44728030     0.06500
C934        C  0.56468499  0.89916678  0.46833566    -0.02100
Br935      Br  0.55610855  0.92022810  0.43976713    -0.01800
H936        H  0.56171531  0.91286980  0.52808527     0.10400
H937        H  0.57601925  0.85259437  0.45478990     0.08400
Br938      Br  0.58285807  0.84617186  0.54275931    -0.02200
C939        C  0.34243304  0.91501846  0.82651309    -0.08800
C940        C  0.34914891  0.90602051  0.86096667     0.07400
C941        C  0.36074102  0.89250280  0.85340497    -0.02600
C942        C  0.36420893  0.88736660  0.81245860    -0.07000
C943        C  0.35659124  0.89547768  0.77811812     0.06500
C944        C  0.34607127  0.90997068  0.78548197    -0.02100
Br945      Br  0.33425710  0.92162178  0.74146181    -0.01800
H946        H  0.33359965  0.92550971  0.83143536     0.10400
H947        H  0.37250038  0.87636569  0.80746859     0.08400
Br948      Br  0.37089354  0.87886050  0.89684701    -0.02200
C949        C  0.37953940  0.90473619  0.46073363    -0.08800
C950        C  0.35642196  0.88749140  0.44113662     0.07400
C951        C  0.33427714  0.87393263  0.46595537    -0.02600
C952        C  0.33606142  0.87601541  0.50942851    -0.07000
C953        C  0.35965411  0.89103595  0.52910872     0.06500
C954        C  0.38134712  0.90645009  0.50428914    -0.02100
Br955      Br  0.41403988  0.92958450  0.52809924    -0.01800
H956        H  0.39667551  0.91567611  0.44231021     0.10400
H957        H  0.31911207  0.86429289  0.52793537     0.08400
Br958      Br  0.30112620  0.85144563  0.44290243    -0.02200
C959        C  0.47597417  0.88827455  0.66216761    -0.08800
C960        C  0.47415601  0.86512246  0.66512813     0.07400
C961        C  0.44970850  0.84262975  0.66773597    -0.02600
C962        C  0.42810947  0.84377203  0.66610310    -0.07000
C963        C  0.42993135  0.86692097  0.66281732     0.06500
C964        C  0.45439543  0.88944790  0.66139116    -0.02100
Br965      Br  0.46033602  0.92266491  0.65788103    -0.01800
H966        H  0.49444069  0.90581733  0.66051166     0.10400
H967        H  0.40962287  0.82624175  0.66778938     0.08400
Br968      Br  0.44384701  0.80954279  0.67395782    -0.02200
C969        C  0.34730917  0.45837599  0.11630212    -0.08800
C970        C  0.32923453  0.43247174  0.11073526     0.07400
C971        C  0.31876232  0.41700086  0.14673587    -0.02600
C972        C  0.32509870  0.42790385  0.18653952    -0.07000
C973        C  0.34197315  0.45405821  0.19183273     0.06500
C974        C  0.35387472  0.46918032  0.15603939    -0.02100
Br975      Br  0.37969326  0.50466928  0.15850313    -0.01800
H976        H  0.35621119  0.47055837  0.08945639     0.10400
H977        H  0.31612647  0.41585497  0.21350769     0.08400
Br978      Br  0.29570550  0.38091376  0.14476965    -0.02200
C979        C  0.60192076  0.69111344  0.17826510    -0.08800
C980        C  0.57630516  0.68298814  0.18278034     0.07400
C981        C  0.56250803  0.68084728  0.14629521    -0.02600
C982        C  0.57460164  0.68761312  0.10738877    -0.07000
C983        C  0.60047080  0.69705179  0.10335687     0.06500
C984        C  0.61405081  0.69822768  0.13926448    -0.02100
Br985      Br  0.64907657  0.70900212  0.13728101    -0.01800
H986        H  0.61288017  0.69266773  0.20541224     0.10400
H987        H  0.56384509  0.68648462  0.08020467     0.08400
Br988      Br  0.52741502  0.67004626  0.14618895    -0.02200
C989        C  0.56024632  0.76595215  0.29852074    -0.08800
C990        C  0.53754480  0.74219097  0.30217532     0.07400
C991        C  0.51449333  0.74096436  0.30538344    -0.02600
C992        C  0.51484492  0.76330770  0.30812159    -0.07000
C993        C  0.53776438  0.78713553  0.30644869     0.06500
C994        C  0.56060172  0.78820708  0.29997251    -0.02100
Br995      Br  0.59323167  0.81896200  0.29171100    -0.01800
H996        H  0.57808841  0.76736423  0.29484695     0.10400
H997        H  0.49703474  0.76196997  0.31154503     0.08400
Br998      Br  0.48185466  0.70973301  0.30391701    -0.02200
C999        C  0.46814137  0.58457575  0.32715927    -0.08800
C1000       C  0.46944061  0.60645874  0.31380068     0.07400
C1001       C  0.44672376  0.60462722  0.30297285    -0.02600
C1002       C  0.42364788  0.58125235  0.30509512    -0.07000
C1003       C  0.42240949  0.55929938  0.31776784     0.06500
C1004       C  0.44503552  0.56121676  0.32942247    -0.02100
Br1005     Br  0.44601207  0.53324109  0.35037797    -0.01800
H1006       H  0.48525372  0.58562375  0.33631632     0.10400
H1007       H  0.40654326  0.58020046  0.29587605     0.08400
Br1008     Br  0.44545972  0.63264904  0.28307112    -0.02200
C1009       C  0.32914342  0.43626367  0.78430325    -0.08800
C1010       C  0.34447153  0.46265036  0.78063820     0.07400
C1011       C  0.35387888  0.47719786  0.81748521    -0.02600
C1012       C  0.34693475  0.46527357  0.85659338    -0.07000
C1013       C  0.33067673  0.43887257  0.86032772     0.06500
C1014       C  0.32219403  0.42431080  0.82328054    -0.02100
Br1015     Br  0.30096782  0.38802000  0.82235902    -0.01800
H1016       H  0.32184291  0.42473376  0.75653055     0.10400
H1017       H  0.35409267  0.47686176  0.88429996     0.08400
Br1018     Br  0.37680721  0.51332391  0.81712925    -0.02200
C1019       C  0.36733784  0.47187028  0.50884938    -0.08800
C1020       C  0.34528766  0.46523073  0.53117022     0.07400
C1021       C  0.32222510  0.45448315  0.50917002    -0.02600
C1022       C  0.32219867  0.45373833  0.46557797    -0.07000
C1023       C  0.34475729  0.46309450  0.44292236     0.06500
C1024       C  0.36725797  0.47083999  0.46509377    -0.02100
Br1025     Br  0.39916411  0.48337214  0.43779933    -0.01800
H1026       H  0.38515142  0.47982254  0.52514941     0.10400
H1027       H  0.30458597  0.44697778  0.44922136     0.08400
Br1028     Br  0.29016995  0.44112980  0.53665578    -0.02200
C1029       C  0.56923988  0.68095834  0.80849962    -0.08800
C1030       C  0.58542891  0.69320357  0.77418546     0.07400
C1031       C  0.61169277  0.70954642  0.78165835    -0.02600
C1032       C  0.62079919  0.71438000  0.82267327    -0.07000
C1033       C  0.60439559  0.70312075  0.85712906     0.06500
C1034       C  0.57833855  0.68554348  0.84942444    -0.02100
Br1035     Br  0.55360944  0.66746828  0.89262953    -0.01800
H1036       H  0.54906986  0.66796625  0.80362544     0.10400
H1037       H  0.64093042  0.72754079  0.82756723     0.08400
Br1038     Br  0.63623392  0.72702128  0.73805681    -0.02200
C1039       C  0.56659683  0.77542658  0.66683534    -0.08800
C1040       C  0.54382991  0.75193113  0.66090557     0.07400
C1041       C  0.52101051  0.75119388  0.65762977    -0.02600
C1042       C  0.52151240  0.77358596  0.66054250    -0.07000
C1043       C  0.54432291  0.79707319  0.66650848     0.06500
C1044       C  0.56714804  0.79778664  0.66947805    -0.02100
Br1045     Br  0.60012689  0.82824794  0.67632376    -0.01800
H1046       H  0.58436638  0.77657186  0.66916954     0.10400
H1047       H  0.50380836  0.77254660  0.65788071     0.08400
Br1048     Br  0.48833631  0.72065604  0.64942502    -0.02200
C1049       C  0.58313020  0.70707468  0.50079620    -0.08800
C1050       C  0.57016995  0.68454091  0.52402682     0.07400
C1051       C  0.55944690  0.66135760  0.50261287    -0.02600
C1052       C  0.56003765  0.66109053  0.45887202    -0.07000
C1053       C  0.57118629  0.68358762  0.43544017     0.06500
C1054       C  0.58408911  0.70683899  0.45713775    -0.02100
Br1055     Br  0.60315195  0.73907248  0.42954064    -0.01800
H1056       H  0.59198340  0.72506683  0.51667145     0.10400
H1057       H  0.55018621  0.64301948  0.44315909     0.08400
Br1058     Br  0.54099690  0.62922371  0.53058069    -0.02200
C1059       C  0.45341563  0.61425906  0.65727930    -0.08800
C1060       C  0.47540007  0.61368258  0.65916124     0.07400
C1061       C  0.47268197  0.58994515  0.66161331    -0.02600
C1062       C  0.44851817  0.56773549  0.66026071    -0.07000
C1063       C  0.42654552  0.56830675  0.65740070     0.06500
C1064       C  0.42923666  0.59206711  0.65680997    -0.02100
Br1065     Br  0.40118444  0.59625275  0.65662460    -0.01800
H1066       H  0.45494317  0.63219609  0.65614511     0.10400
H1067       H  0.44698318  0.54980361  0.66172002     0.08400
Br1068     Br  0.50062669  0.58588896  0.66821502    -0.02200
C1069       C  0.12710503  0.43234740  0.17961404    -0.08800
C1070       C  0.14055848  0.45875171  0.18365137     0.07400
C1071       C  0.14765210  0.47362220  0.14695983    -0.02600
C1072       C  0.14330455  0.46225141  0.10784593    -0.07000
C1073       C  0.13132785  0.43601075  0.10378791     0.06500
C1074       C  0.12215535  0.42088757  0.14029161    -0.02100
Br1075     Br  0.10195733  0.38457141  0.13917738    -0.01800
H1076       H  0.12083754  0.42051236  0.20720736     0.10400
H1077       H  0.14964247  0.47418540  0.08036294     0.08400
Br1078     Br  0.16252600  0.50950539  0.14731407    -0.02200
C1079       C  0.23822996  0.47627456  0.31968725    -0.08800
C1080       C  0.24015901  0.49806604  0.30432353     0.07400
C1081       C  0.26423439  0.51892907  0.29232650    -0.02600
C1082       C  0.28542205  0.51700739  0.29402048    -0.07000
C1083       C  0.28319800  0.49482132  0.30851889     0.06500
C1084       C  0.25936445  0.47465951  0.32268681    -0.02100
Br1085     Br  0.25441456  0.44519741  0.35011995    -0.01800
H1086       H  0.22014642  0.46047300  0.33070888     0.10400
H1087       H  0.30365166  0.53285306  0.28372921     0.08400
Br1088     Br  0.26949412  0.55021028  0.27266932    -0.02200
C1089       C  0.14622209  0.47339469  0.80903864    -0.08800
C1090       C  0.13722388  0.45722236  0.77427910     0.07400
C1091       C  0.12212957  0.43085722  0.78150714    -0.02600
C1092       C  0.11817705  0.42145543  0.82236440    -0.07000
C1093       C  0.12850272  0.43767533  0.85696748     0.06500
C1094       C  0.14188746  0.46403002  0.84985691    -0.02100
Br1095     Br  0.15571574  0.48874000  0.89363467    -0.01800
H1096       H  0.15735590  0.49369363  0.80455849     0.10400
H1097       H  0.10724758  0.40116614  0.82694528     0.08400
Br1098     Br  0.10671792  0.40634594  0.73766843    -0.02200
C1099       C  0.26190897  0.51877981  0.66223222    -0.08800
C1100       C  0.23876877  0.49524583  0.65914684     0.07400
C1101       C  0.23925144  0.47315871  0.65625366    -0.02600
C1102       C  0.26236861  0.47503081  0.65719562    -0.07000
C1103       C  0.28549362  0.49850645  0.66021769     0.06500
C1104       C  0.28511535  0.52064714  0.66257215    -0.02100
Br1105     Br  0.31517216  0.55401770  0.66701220    -0.01800
H1106       H  0.26203832  0.53596480  0.66435563     0.10400
H1107       H  0.26217994  0.45782344  0.65467394     0.08400
Br1108     Br  0.20962464  0.43971081  0.64889828    -0.02200
C1109       C  0.13165604  0.46904330  0.45604582    -0.08800
C1110       C  0.15088710  0.46843076  0.43487794     0.07400
C1111       C  0.16776778  0.46496582  0.45817186    -0.02600
C1112       C  0.16670249  0.46458644  0.50162894    -0.07000
C1113       C  0.14920913  0.46783485  0.52310004     0.06500
C1114       C  0.13074736  0.46890898  0.49986453    -0.02100
Br1115     Br  0.10590291  0.47336443  0.52559133    -0.01800
H1116       H  0.11851970  0.47166240  0.43860647     0.10400
H1117       H  0.18066322  0.46311375  0.51881595     0.08400
Br1118     Br  0.19347230  0.46163310  0.43265898    -0.02200
C1119       C  0.12896066  0.69163960  0.77154547    -0.08800
C1120       C  0.14237219  0.67991664  0.76641316     0.07400
C1121       C  0.15123867  0.67408329  0.80244558    -0.02600
C1122       C  0.14749331  0.68095353  0.84196942    -0.07000
C1123       C  0.13543432  0.69406015  0.84681126     0.06500
C1124       C  0.12562877  0.69891303  0.81098600    -0.02100
Br1125     Br  0.10740057  0.71531279  0.81310008    -0.01800
H1126       H  0.12187145  0.69616212  0.74449762     0.10400
H1127       H  0.15485692  0.67674325  0.86900225     0.08400
Br1128     Br  0.16870791  0.65687487  0.80056508    -0.02200
C1129       C  0.19067374  0.60801698  0.63524962    -0.08800
C1130       C  0.16795948  0.60648203  0.64407731     0.07400
C1131       C  0.14622743  0.58260843  0.65476653    -0.02600
C1132       C  0.14754152  0.56122442  0.65547469    -0.07000
C1133       C  0.17018430  0.56276941  0.64663707     0.06500
C1134       C  0.19202153  0.58659309  0.63656868    -0.02100
Br1135     Br  0.22403661  0.59131593  0.62256071    -0.01800
H1136       H  0.20759626  0.62602676  0.62702941     0.10400
H1137       H  0.13066007  0.54318998  0.66377974     0.08400
Br1138     Br  0.11410469  0.57723254  0.67027160    -0.02200
C1139       C  0.26165253  0.74831357  0.62818740    -0.08800
C1140       C  0.23960599  0.74738626  0.63977798     0.07400
C1141       C  0.24190608  0.77016239  0.65159159    -0.02600
C1142       C  0.26585081  0.79258375  0.65358039    -0.07000
C1143       C  0.28799651  0.79332944  0.64353095     0.06500
C1144       C  0.28559069  0.77089306  0.62957151    -0.02100
Br1145     Br  0.31374172  0.76951460  0.61045035    -0.01800
H1146       H  0.26036056  0.73129215  0.61802105     0.10400
H1147       H  0.26708266  0.80962163  0.66346268     0.08400
Br1148     Br  0.21364065  0.77281779  0.66514294    -0.02200
C1149       C  0.12789578  0.69179122  0.17037508    -0.08800
C1150       C  0.14005361  0.67878107  0.17536994     0.07400
C1151       C  0.14657504  0.67071900  0.13908580    -0.02600
C1152       C  0.14241308  0.67720765  0.09949000    -0.07000
C1153       C  0.13176517  0.69167309  0.09459224     0.06500
C1154       C  0.12371959  0.69826533  0.13082071    -0.02100
Br1155     Br  0.10721902  0.71643340  0.12963035    -0.01800
H1156       H  0.12234439  0.69783259  0.19752553     0.10400
H1157       H  0.14826147  0.67145259  0.07234820     0.08400
Br1158     Br  0.16140579  0.65097232  0.14044406    -0.02200
C1159       C  0.12543581  0.65780506  0.44675224    -0.08800
C1160       C  0.14366084  0.68021506  0.42622399     0.07400
C1161       C  0.15855083  0.70230797  0.45013860    -0.02600
C1162       C  0.15726648  0.70096377  0.49363227    -0.07000
C1163       C  0.14138416  0.67786647  0.51453131     0.06500
C1164       C  0.12410912  0.65646155  0.49052307    -0.02100
Br1165     Br  0.09895208  0.62464452  0.51507328    -0.01800
H1166       H  0.11336561  0.64079412  0.42889398     0.10400
H1167       H  0.17010380  0.71791938  0.51108184     0.08400
Br1168     Br  0.18189744  0.73483953  0.42551758    -0.02200
C1169       C  0.18349191  0.60489389  0.28075957    -0.08800
C1170       C  0.16701578  0.60675943  0.30775826     0.07400
C1171       C  0.15085949  0.58617992  0.33423825    -0.02600
C1172       C  0.15133572  0.56427417  0.33285491    -0.07000
C1173       C  0.16783976  0.56248202  0.30575235     0.06500
C1174       C  0.18391010  0.58303816  0.27928630    -0.02100
Br1175     Br  0.20550367  0.58193810  0.23811408    -0.01800
H1176       H  0.19573209  0.62032624  0.25977474     0.10400
H1177       H  0.13906675  0.54873289  0.35364446     0.08400
Br1178     Br  0.12881653  0.58717609  0.37457193    -0.02200
C1179       C  0.24520247  0.76655111  0.27852304    -0.08800
C1180       C  0.24139735  0.74607798  0.30231756     0.07400
C1181       C  0.26134640  0.74939928  0.32759794    -0.02600
C1182       C  0.28455286  0.77272971  0.32801706    -0.07000
C1183       C  0.28834228  0.79321353  0.30419220     0.06500
C1184       C  0.26832015  0.78990887  0.27912688    -0.02100
Br1185     Br  0.27132786  0.81589669  0.24340946    -0.01800
H1186       H  0.23013267  0.76432253  0.25885920     0.10400
H1187       H  0.29953923  0.77502742  0.34797582     0.08400
Br1188     Br  0.25776486  0.72369947  0.36467642    -0.02200
loop_ 
_geom_bond_atom_site_label_1 
_geom_bond_atom_site_label_2 
_geom_bond_distance 
_geom_bond_site_symmetry_2 
_ccdc_geom_bond_type 
O1            C4   1.265       .  A
O1           Cd6   2.444       .  S
C2           O11   1.267       .  A
C2            O7   1.266       .  A
C2         C1180   1.479       .  S
O3            C9   1.260       .  A
O3           Cd6   2.456       .  S
C4           O12   1.265       .  A
C4         C1170   1.478       .  S
C5           O10   1.269       .  A
C5            O8   1.261       .  A
C5         C1160   1.485       .  S
Cd6          O13   2.509       .  S
Cd6          O12   2.462       .  S
Cd6          O11   2.448       .  S
Cd6           O7   2.454       .  S
Cd6          O10   2.528       .  S
Cd6           O8   2.421       .  S
C9           O13   1.269       .  A
C9         C1150   1.493       .  S
O14          C17   1.269       .  A
O14         Cd19   2.478       .  S
C15          O24   1.263       .  A
C15          O20   1.270       .  A
C15        C1140   1.487       .  S
O16          C22   1.264       .  A
O16         Cd19   2.519       .  S
C17          O25   1.264       .  A
C17        C1130   1.489       .  S
C18          O23   1.271       .  A
C18          O21   1.260       .  A
C18        C1120   1.488       .  S
Cd19         O26   2.467       .  S
Cd19         O25   2.440       .  S
Cd19         O24   2.426       .  S
Cd19         O20   2.475       .  S
Cd19         O23   2.510       .  S
Cd19         O21   2.436       .  S
C22          O26   1.262       .  A
C22        C1163   1.493       .  S
O27          C30   1.268       .  A
O27         Cd32   2.458       .  S
C28          O37   1.266       .  A
C28          O33   1.265       .  A
C28        C1133   1.483       .  S
O29          C35   1.269       .  A
O29         Cd32   2.529       .  S
C30          O38   1.265       .  A
C30        C1100   1.483       .  S
C31          O36   1.268       .  A
C31          O34   1.264       .  A
C31        C1090   1.493       .  S
Cd32         O39   2.418       .  S
Cd32         O38   2.432       .  S
Cd32         O37   2.450       .  S
Cd32         O33   2.467       .  S
Cd32         O36   2.507       .  S
Cd32         O34   2.444       .  S
C35          O39   1.262       .  A
C35        C1113   1.485       .  S
O40          C43   1.264       .  A
O40         Cd45   2.439       .  S
C41          O50   1.267       .  A
C41          O46   1.268       .  A
C41        C1080   1.479       .  S
O42          C48   1.261       .  A
O42         Cd45   2.421       .  S
C43          O51   1.266       .  A
C43        C1173   1.476       .  S
C44          O49   1.270       .  A
C44          O47   1.261       .  A
C44        C1070   1.489       .  S
Cd45         O52   2.529       .  S
Cd45         O51   2.470       .  S
Cd45         O50   2.413       .  S
Cd45         O46   2.476       .  S
Cd45         O49   2.523       .  S
Cd45         O47   2.428       .  S
C48          O52   1.270       .  A
C48        C1110   1.482       .  S
O53          C56   1.266       .  A
O53         Cd58   2.460       .  S
C54          O63   1.264       .  A
C54          O59   1.267       .  A
C54        C1060   1.485       .  S
O55          C61   1.263       .  A
O55         Cd58   2.473       .  S
C56          O64   1.268       .  A
C56        C1040   1.486       .  S
C57          O62   1.268       .  A
C57          O60   1.262       .  A
C57        C1030   1.491       .  S
Cd58         O65   2.509       .  S
Cd58         O64   2.442       .  S
Cd58         O63   2.454       .  S
Cd58         O59   2.452       .  S
Cd58         O62   2.515       .  S
Cd58         O60   2.441       .  S
C61          O65   1.265       .  A
C61        C1050   1.488       .  S
O66          C69   1.264       .  A
O66         Cd71   2.457       .  S
C67          O76   1.267       .  A
C67          O72   1.268       .  A
C67        C1103   1.482       .  S
O68          C74   1.260       .  A
O68         Cd71   2.447       .  S
C69          O77   1.266       .  A
C69        C1063   1.486       .  S
C70          O75   1.269       .  A
C70          O73   1.261       .  A
C70        C1010   1.488       .  S
Cd71         O78   2.535       .  S
Cd71         O77   2.455       .  S
Cd71         O76   2.417       .  S
Cd71         O72   2.464       .  S
Cd71         O75   2.497       .  S
Cd71         O73   2.454       .  S
C74          O78   1.268       .  A
C74        C1020   1.487       .  S
O79          C82   1.264       .  A
O79         Cd84   2.451       .  S
C80          O89   1.267       .  A
C80          O85   1.266       .  A
C80         C990   1.482       .  S
O81          C87   1.262       .  A
O81         Cd84   2.475       .  S
C82          O90   1.267       .  A
C82        C1000   1.482       .  S
C83          O88   1.270       .  A
C83          O86   1.259       .  A
C83         C980   1.495       .  S
Cd84         O91   2.510       .  S
Cd84         O90   2.455       .  S
Cd84         O89   2.436       .  S
Cd84         O85   2.458       .  S
Cd84         O88   2.530       .  S
Cd84         O86   2.439       .  S
C87          O91   1.266       .  A
C87        C1053   1.494       .  S
O92          C95   1.267       .  A
O92         Cd97   2.477       .  S
C93         O102   1.265       .  A
C93          O98   1.266       .  A
C93        C1003   1.481       .  S
O94         C100   1.262       .  A
O94         Cd97   2.455       .  S
C95         O103   1.266       .  A
C95        C1083   1.480       .  S
C96         O101   1.269       .  A
C96          O99   1.261       .  A
C96         C973   1.489       .  S
Cd97        O104   2.518       .  S
Cd97        O103   2.432       .  S
Cd97        O102   2.460       .  S
Cd97         O98   2.449       .  S
Cd97        O101   2.517       .  S
Cd97         O99   2.438       .  S
C100        O104   1.266       .  A
C100       C1023   1.487       .  S
O105        C108   1.266       .  A
O105       Cd110   2.486       .  S
C106        O115   1.266       .  A
C106        O111   1.270       .  A
C106        C963   1.492       .  S
O107        C113   1.263       .  A
O107       Cd110   2.487       .  S
C108        O116   1.264       .  A
C108       C1143   1.487       .  S
C109        O114   1.268       .  A
C109        O112   1.263       .  A
C109        C943   1.485       .  S
Cd110       O117   2.475       .  S
Cd110       O116   2.445       .  S
Cd110       O115   2.456       .  S
Cd110       O111   2.475       .  S
Cd110       O114   2.512       .  S
Cd110       O112   2.441       .  S
C113        O117   1.263       .  A
C113        C953   1.482       .  S
O118        C121   1.269       .  A
O118       Cd123   2.468       .  S
C119        O128   1.268       .  A
C119        O124   1.265       .  A
C119        C960   1.491       .  S
O120        C126   1.269       .  A
O120       Cd123   2.497       .  S
C121        O129   1.263       .  A
C121       C1043   1.485       .  S
C122        O127   1.271       .  A
C122        O125   1.260       .  A
C122        C930   1.479       .  S
Cd123       O130   2.441       .  S
Cd123       O129   2.421       .  S
Cd123       O128   2.470       .  S
Cd123       O124   2.451       .  S
Cd123       O127   2.538       .  S
Cd123       O125   2.404       .  S
C126        O130   1.264       .  A
C126        C920   1.484       .  S
O131        C134   1.263       .  A
O131       Cd136   2.454       .  S
C132        O141   1.265       .  A
C132        O137   1.268       .  A
C132       C1183   1.479       .  S
O133        C139   1.261       .  A
O133       Cd136   2.453       .  S
C134        O142   1.267       .  A
C134        C910   1.486       .  S
C135        O140   1.267       .  A
C135        O138   1.263       .  A
C135        C903   1.489       .  S
Cd136       O143   2.509       .  S
Cd136       O142   2.467       .  S
Cd136       O141   2.434       .  S
Cd136       O137   2.456       .  S
Cd136       O140   2.503       .  S
Cd136       O138   2.458       .  S
C139        O143   1.268       .  A
C139        C950   1.485       .  S
O144        C147   1.271       .  A
O144       Cd149   2.485       .  S
C145        O154   1.264       .  A
C145        O150   1.269       .  A
C145        C913   1.484       .  S
O146        C152   1.268       .  A
O146       Cd149   2.517       .  S
C147        O155   1.263       .  A
C147        C993   1.485       .  S
C148        O153   1.271       .  A
C148        O151   1.261       .  A
C148        C890   1.489       .  S
Cd149       O156   2.434       .  S
Cd149       O155   2.399       .  S
Cd149       O154   2.439       .  S
Cd149       O150   2.463       .  S
Cd149       O153   2.498       .  S
Cd149       O151   2.423       .  S
C152        O156   1.263       .  A
C152        C933   1.483       .  S
O157        C160   1.267       .  A
O157       Cd162   2.476       .  S
C158        O167   1.268       .  A
C158        O163   1.267       .  A
C158        C880   1.477       .  S
O159        C165   1.270       .  A
O159       Cd162   2.531       .  S
C160        O168   1.265       .  A
C160        C860   1.486       .  S
C161        O166   1.268       .  A
C161        O164   1.262       .  A
C161        C850   1.479       .  S
Cd162       O169   2.424       .  S
Cd162       O168   2.427       .  S
Cd162       O167   2.450       .  S
Cd162       O163   2.446       .  S
Cd162       O166   2.488       .  S
Cd162       O164   2.470       .  S
C165        O169   1.262       .  A
C165        C870   1.479       .  S
O170        C173   1.267       .  A
O170       Cd175   2.470       .  S
C171        O180   1.267       .  A
C171        O176   1.267       .  A
C171        C840   1.480       .  S
O172        C178   1.267       .  A
O172       Cd175   2.518       .  S
C173        O181   1.264       .  A
C173        C883   1.480       .  S
C174        O179   1.267       .  A
C174        O177   1.262       .  A
C174        C820   1.490       .  S
Cd175       O182   2.439       .  S
Cd175       O181   2.448       .  S
Cd175       O180   2.445       .  S
Cd175       O176   2.462       .  S
Cd175       O179   2.509       .  S
Cd175       O177   2.454       .  S
C178        O182   1.261       .  A
C178        C830   1.484       .  S
O183        C186   1.264       .  A
O183       Cd188   2.474       .  S
C184        O193   1.267       .  A
C184        O189   1.266       .  A
C184        C800   1.485       .  S
O185        C191   1.268       .  A
O185       Cd188   2.528       .  S
C186        O194   1.266       .  A
C186        C810   1.486       .  S
C187        O192   1.268       .  A
C187        O190   1.264       .  A
C187        C793   1.487       .  S
Cd188       O195   2.426       .  S
Cd188       O194   2.434       .  S
Cd188       O193   2.444       .  S
Cd188       O189   2.452       .  S
Cd188       O192   2.497       .  S
Cd188       O190   2.446       .  S
C191        O195   1.262       .  A
C191        C873   1.479       .  S
O196        C199   1.268       .  A
O196       Cd201   2.459       .  S
C197        O206   1.263       .  A
C197        O202   1.266       .  A
C197        C813   1.488       .  S
O198        C204   1.266       .  A
O198       Cd201   2.520       .  S
C199        O207   1.266       .  A
C199        C780   1.478       .  S
C200        O205   1.267       .  A
C200        O203   1.263       .  A
C200        C770   1.489       .  S
Cd201       O208   2.437       .  S
Cd201       O207   2.438       .  S
Cd201       O206   2.437       .  S
Cd201       O202   2.485       .  S
Cd201       O205   2.511       .  S
Cd201       O203   2.453       .  S
C204        O208   1.261       .  A
C204        C833   1.483       .  S
O209        C212   1.268       .  A
O209       Cd214   2.451       .  S
C210        O219   1.265       .  A
C210        O215   1.266       .  A
C210        C760   1.486       .  S
O211        C217   1.268       .  A
O211       Cd214   2.541       .  S
C212        O220   1.264       .  A
C212        C803   1.482       .  S
C213        O218   1.270       .  A
C213        O216   1.262       .  A
C213        C743   1.486       .  S
Cd214       O221   2.433       .  S
Cd214       O220   2.434       .  S
Cd214       O219   2.456       .  S
Cd214       O215   2.468       .  S
Cd214       O218   2.511       .  S
Cd214       O216   2.437       .  S
C217        O221   1.262       .  A
C217        C750   1.493       .  S
O222        C225   1.266       .  A
O222       Cd227   2.443       .  S
C223        O232   1.264       .  A
C223        O228   1.265       .  A
C223        C730   1.478       .  S
O224        C230   1.265       .  A
O224       Cd227   2.494       .  S
C225        O233   1.269       .  A
C225        C763   1.482       .  S
C226        O231   1.269       .  A
C226        O229   1.260       .  A
C226        C710   1.486       .  S
Cd227       O234   2.475       .  S
Cd227       O233   2.447       .  S
Cd227       O232   2.453       .  S
Cd227       O228   2.462       .  S
Cd227       O231   2.513       .  S
Cd227       O229   2.444       .  S
C230        O234   1.262       .  A
C230        C723   1.488       .  S
O235        C238   1.265       .  A
O235       Cd240   2.434       .  S
C236        O245   1.264       .  A
C236        O241   1.268       .  A
C236        C863   1.487       .  S
O237        C243   1.271       .  A
O237       Cd240   2.552       .  S
C238        O246   1.268       .  A
C238        C700   1.481       .  S
C239        O244   1.270       .  A
C239        O242   1.263       .  A
C239        C690   1.489       .  S
Cd240       O247   2.421       .  S
Cd240       O246   2.461       .  S
Cd240       O245   2.439       .  S
Cd240       O241   2.471       .  S
Cd240       O244   2.504       .  S
Cd240       O242   2.475       .  S
C243        O247   1.261       .  A
C243        C753   1.486       .  S
O248        C251   1.267       .  A
O248       Cd253   2.461       .  S
C249        O258   1.265       .  A
C249        O254   1.266       .  A
C249        C703   1.479       .  S
O250        C256   1.261       .  A
O250       Cd253   2.441       .  S
C251        O259   1.267       .  A
C251        C683   1.481       .  S
C252        O257   1.267       .  A
C252        O255   1.262       .  A
C252        C670   1.488       .  S
Cd253       O260   2.521       .  S
Cd253       O259   2.442       .  S
Cd253       O258   2.467       .  S
Cd253       O254   2.444       .  S
Cd253       O257   2.506       .  S
Cd253       O255   2.439       .  S
C256        O260   1.267       .  A
C256        C720   1.482       .  S
O261        C264   1.268       .  A
O261       Cd266   2.466       .  S
C262        O271   1.267       .  A
C262        O267   1.265       .  A
C262        C663   1.486       .  S
O263        C269   1.263       .  A
O263       Cd266   2.464       .  S
C264        O272   1.264       .  A
C264        C843   1.479       .  S
C265        O270   1.269       .  A
C265        O268   1.262       .  A
C265        C640   1.493       .  S
Cd266       O273   2.519       .  S
Cd266       O272   2.430       .  S
Cd266       O271   2.445       .  S
Cd266       O267   2.467       .  S
Cd266       O270   2.526       .  S
Cd266       O268   2.451       .  S
C269        O273   1.264       .  A
C269        C653   1.495       .  S
O274        C277   1.267       .  A
O274       Cd279   2.460       .  S
C275        O284   1.265       .  A
C275        O280   1.266       .  A
C275        C630   1.481       .  S
O276        C282   1.269       .  A
O276       Cd279   2.514       .  S
C277        O285   1.267       .  A
C277        C783   1.478       .  S
C278        O283   1.261       .  A
C278        O281   1.267       .  A
C278        C650   1.484       .  S
Cd279       O286   2.439       .  S
Cd279       O285   2.439       .  S
Cd279       O284   2.461       .  S
Cd279       O280   2.436       .  S
Cd279       O283   2.434       .  S
Cd279       O281   2.526       .  S
C282        O286   1.260       .  A
C282        C620   1.486       .  S
O287        C290   1.265       .  A
O287       Cd292   2.472       .  S
C288        O297   1.268       .  A
C288        O293   1.267       .  A
C288        C633   1.483       .  S
O289        C295   1.270       .  A
O289       Cd292   2.522       .  S
C290        O298   1.265       .  A
C290        C733   1.486       .  S
C291        O296   1.269       .  A
C291        O294   1.264       .  A
C291        C600   1.489       .  S
Cd292       O299   2.396       .  S
Cd292       O298   2.456       .  S
Cd292       O297   2.457       .  S
Cd292       O293   2.442       .  S
Cd292       O296   2.496       .  S
Cd292       O294   2.434       .  S
C295        O299   1.262       .  A
C295        C610   1.473       .  S
O300        C303   1.269       .  A
O300       Cd305   2.473       .  S
C301        O310   1.264       .  A
C301        O306   1.266       .  A
C301        C680   1.489       .  S
O302        C308   1.269       .  A
O302       Cd305   2.511       .  S
C303        O311   1.264       .  A
C303        C660   1.486       .  S
C304        O309   1.268       .  A
C304        O307   1.263       .  A
C304        C590   1.489       .  S
Cd305       O312   2.409       .  S
Cd305       O311   2.423       .  S
Cd305       O310   2.470       .  S
Cd305       O306   2.473       .  S
Cd305       O309   2.518       .  S
Cd305       O307   2.417       .  S
C308        O312   1.263       .  A
C308        C613   1.480       .  S
O313        C316   1.269       .  A
O313       Cd318   2.482       .  S
C314        O323   1.264       .  A
C314        O319   1.270       .  A
C314        C893   1.485       .  S
O315        C321   1.269       .  A
O315       Cd318   2.496       .  S
C316        O324   1.265       .  A
C316        C923   1.488       .  S
C317        O322   1.270       .  A
C317        O320   1.264   1_556  A
C317        C570   1.475       .  S
Cd318       O325   2.418       .  S
Cd318       O324   2.438       .  S
Cd318       O323   2.445   1_556  S
Cd318       O319   2.480   1_556  S
Cd318       O322   2.486       .  S
Cd318       O320   2.396   1_556  S
C321        O325   1.264       .  A
C321        C580   1.474       .  S
O326        C329   1.268       .  A
O326       Cd331   2.490   1_554  S
C327        O336   1.267       .  A
C327        O332   1.268       .  A
C327       C1033   1.491       .  S
O328        C334   1.267       .  A
O328       Cd331   2.489       .  S
C329        O337   1.263       .  A
C329        C983   1.486       .  S
C330        O335   1.268       .  A
C330        O333   1.263       .  A
C330        C560   1.469       .  S
Cd331       O338   2.420       .  S
Cd331       O337   2.466   1_556  S
Cd331       O336   2.454       .  S
Cd331       O332   2.471       .  S
Cd331       O335   2.478       .  S
Cd331       O333   2.400       .  S
C334        O338   1.264       .  A
C334        C583   1.475       .  S
O339        C342   1.267       .  A
O339       Cd344   2.498       .  S
C340        O349   1.265       .  A
C340        O345   1.268       .  A
C340        C790   1.489       .  S
O341        C347   1.267       .  A
O341       Cd344   2.499       .  S
C342        O350   1.266       .  A
C342        C853   1.490       .  S
C343        O348   1.268       .  A
C343        O346   1.265       .  A
C343        C550   1.479       .  S
Cd344       O351   2.395       .  S
Cd344       O350   2.465       .  S
Cd344       O349   2.447   1_556  S
Cd344       O345   2.490   1_556  S
Cd344       O348   2.491       .  S
Cd344       O346   2.435       .  S
C347        O351   1.263       .  A
C347        C540   1.473       .  S
O352        C355   1.271       .  A
O352       Cd357   2.515       .  S
C353        O362   1.264       .  A
C353        O358   1.270       .  A
C353        C740   1.492       .  S
O354        C360   1.269       .  A
O354       Cd357   2.482       .  S
C355        O363   1.263       .  A
C355        C693   1.494       .  S
C356        O361   1.269       .  A
C356        O359   1.263       .  A
C356        C563   1.472       .  S
Cd357       O364   2.416   1_556  S
Cd357       O363   2.436       .  S
Cd357       O362   2.467   1_556  S
Cd357       O358   2.470   1_556  S
Cd357       O361   2.504       .  S
Cd357       O359   2.378       .  S
C360        O364   1.265   1_556  A
C360        C553   1.475       .  S
O365        C368   1.267       .  A
O365       Cd370   2.474       .  S
C366        O375   1.266       .  A
C366        O371   1.268       .  A
C366        C900   1.493       .  S
O367        C373   1.269       .  A
O367       Cd370   2.482       .  S
C368        O376   1.265       .  A
C368        C940   1.488       .  S
C369        O374   1.270       .  A
C369        O372   1.262       .  A
C369        C533   1.488       .  S
Cd370       O377   2.414       .  S
Cd370       O376   2.456       .  S
Cd370       O375   2.451   1_556  S
Cd370       O371   2.490   1_556  S
Cd370       O374   2.505       .  S
Cd370       O372   2.416       .  S
C373        O377   1.264       .  A
C373        C520   1.472       .  S
O378        C381   1.270       .  A
O378       Cd383   2.490       .  S
C379        O388   1.262       .  A
C379        O384   1.269       .  A
C379       C1153   1.493       .  S
O380        C386   1.267       .  A
O380       Cd383   2.500       .  S
C381        O389   1.265       .  A
C381       C1123   1.487       .  S
C382        O387   1.268       .  A
C382        O385   1.263       .  A
C382        C543   1.473       .  S
Cd383       O390   2.427       .  S
Cd383       O389   2.449       .  S
Cd383       O388   2.451   1_556  S
Cd383       O384   2.505   1_556  S
Cd383       O387   2.491       .  S
Cd383       O385   2.408       .  S
C386        O390   1.265       .  A
C386        C530   1.489       .  S
O391        C394   1.267       .  A
O391       Cd396   2.489       .  S
C392        O401   1.264       .  A
C392        O397   1.268       .  A
C392        C773   1.492       .  S
O393        C399   1.266       .  A
O393       Cd396   2.487       .  S
C394        O402   1.266       .  A
C394        C823   1.496       .  S
C395        O400   1.267       .  A
C395        O398   1.264       .  A
C395        C500   1.470       .  S
Cd396       O403   2.434       .  S
Cd396       O402   2.479       .  S
Cd396       O401   2.458   1_556  S
Cd396       O397   2.498   1_556  S
Cd396       O400   2.474       .  S
Cd396       O398   2.407       .  S
C399        O403   1.265       .  A
C399        C510   1.480       .  S
O404        C407   1.269       .  A
O404       Cd409   2.489   1_554  S
C405        O414   1.266       .  A
C405        O410   1.267       .  A
C405        C643   1.495       .  S
O406        C412   1.268       .  A
O406       Cd409   2.498       .  S
C407        O415   1.263       .  A
C407        C623   1.492       .  S
C408        O413   1.269       .  A
C408        O411   1.264       .  A
C408        C573   1.472       .  S
Cd409       O416   2.411       .  S
Cd409       O415   2.461   1_556  S
Cd409       O414   2.477       .  S
Cd409       O410   2.484       .  S
Cd409       O413   2.486       .  S
Cd409       O411   2.406       .  S
C412        O416   1.263       .  A
C412        C513   1.476       .  S
O417        C420   1.269       .  A
O417       Cd422   2.480   1_554  S
C418        O427   1.266       .  A
C418        O423   1.269       .  A
C418        C673   1.490       .  S
O419        C425   1.269       .  A
O419       Cd422   2.512       .  S
C420        O428   1.264       .  A
C420        C713   1.491       .  S
C421        O426   1.270       .  A
C421        O424   1.264       .  A
C421        C480   1.477       .  S
Cd422       O429   2.417       .  S
Cd422       O428   2.463   1_556  S
Cd422       O427   2.438       .  S
Cd422       O423   2.478       .  S
Cd422       O426   2.484       .  S
Cd422       O424   2.407       .  S
C425        O429   1.263       .  A
C425        C490   1.478       .  S
O430        C433   1.269       .  A
O430       Cd435   2.474       .  S
C431        O440   1.266       .  A
C431        O436   1.268       .  A
C431        C603   1.491       .  S
O432        C438   1.269       .  A
O432       Cd435   2.502       .  S
C433        O441   1.266       .  A
C433        C593   1.488       .  S
C434        O439   1.270       .  A
C434        O437   1.264       .  A
C434        C523   1.476       .  S
Cd435       O442   2.428       .  S
Cd435       O441   2.449       .  S
Cd435       O440   2.459   1_556  S
Cd435       O436   2.478   1_556  S
Cd435       O439   2.487       .  S
Cd435       O437   2.403       .  S
C438        O442   1.265       .  A
C438        C493   1.482       .  S
O443        C446   1.272       .  A
O443       Cd448   2.497       .  S
C444        O453   1.263       .  A
C444        O449   1.270       .  A
C444        C970   1.493       .  S
O445        C451   1.270       .  A
O445       Cd448   2.505       .  S
C446        O454   1.264       .  A
C446       C1013   1.493       .  S
C447        O452   1.270       .  A
C447        O450   1.264       .  A
C447        C483   1.478       .  S
Cd448       O455   2.418       .  S
Cd448       O454   2.431       .  S
Cd448       O453   2.459   1_556  S
Cd448       O449   2.488   1_556  S
Cd448       O452   2.496       .  S
Cd448       O450   2.408       .  S
C451        O455   1.264       .  A
C451        C470   1.481       .  S
O456        C459   1.270       .  A
O456       Cd461   2.473   1_554  S
C457        O466   1.266       .  A
C457        O462   1.267       .  A
C457       C1093   1.492       .  S
O458        C464   1.269       .  A
O458       Cd461   2.492       .  S
C459        O467   1.265       .  A
C459       C1073   1.489       .  S
C460        O465   1.270       .  A
C460        O463   1.263       .  A
C460        C503   1.472       .  S
Cd461       O468   2.417       .  S
Cd461       O467   2.451   1_556  S
Cd461       O466   2.463       .  S
Cd461       O462   2.474       .  S
Cd461       O465   2.491       .  S
Cd461       O463   2.374       .  S
C464        O468   1.264       .  A
C464        C473   1.478       .  S
C469        C470   1.404       .  A
C469        C474   1.395       .  A
C469        H476   1.084       .  S
C470        C471   1.412   1_556  A
C471        C472   1.404   1_554  A
C471       Br478   1.918       .  S
C472        C473   1.405       .  A
C472        H477   1.083   1_556  S
C473        C474   1.411       .  A
C474       Br475   1.923       .  S
C479        C480   1.404       .  A
C479        C484   1.402       .  A
C479        H486   1.084   1_556  S
C480        C481   1.411       .  A
C481        C482   1.394       .  A
C481       Br488   1.924       .  S
C482        C483   1.404       .  A
C482        H487   1.084       .  S
C483        C484   1.411       .  A
C484       Br485   1.918   1_556  S
C489        C490   1.405       .  A
C489        C494   1.406       .  A
C489        H496   1.082   1_556  S
C490        C491   1.409       .  A
C491        C492   1.395       .  A
C491       Br498   1.922       .  S
C492        C493   1.403       .  A
C492        H497   1.084       .  S
C493        C494   1.414       .  A
C494       Br495   1.918   1_556  S
C499        C500   1.404   1_455  A
C499        C504   1.402       .  A
C499        H506   1.084   1_455  S
C500        C501   1.408   1_656  A
C501        C502   1.390       .  A
C501       Br508   1.923   1_455  S
C502        C503   1.403   1_554  A
C502        H507   1.084       .  S
C503        C504   1.411       .  A
C504       Br505   1.919       .  S
C509        C510   1.403       .  A
C509        C514   1.394       .  A
C509        H516   1.084       .  S
C510        C511   1.414       .  A
C511        C512   1.404       .  A
C511       Br518   1.920   1_556  S
C512        C513   1.404       .  A
C512        H517   1.083   1_556  S
C513        C514   1.410       .  A
C514       Br515   1.923       .  S
C519        C520   1.404   1_545  A
C519        C524   1.403       .  A
C519        H526   1.084   1_545  S
C520        C521   1.408   1_566  A
C521        C522   1.393       .  A
C521       Br528   1.922   1_545  S
C522        C523   1.403   1_554  A
C522        H527   1.084       .  S
C523        C524   1.412       .  A
C524       Br525   1.919       .  S
C529        C530   1.404       .  A
C529        C534   1.394       .  A
C529        H536   1.083       .  S
C530        C531   1.416       .  A
C531        C532   1.405       .  A
C531       Br538   1.920       .  S
C532        C533   1.407       .  A
C532        H537   1.083       .  S
C533        C534   1.415       .  A
C534       Br535   1.925       .  S
C539        C540   1.401   1_455  A
C539        C544   1.391       .  A
C539        H546   1.084   1_455  S
C540        C541   1.412   1_655  A
C541        C542   1.403       .  A
C541       Br548   1.919   1_556  S
C542        C543   1.405       .  A
C542        H547   1.084   1_556  S
C543        C544   1.409       .  A
C544       Br545   1.921       .  S
C549        C550   1.404   1_554  A
C549        C554   1.396       .  A
C549        H556   1.084       .  S
C550        C551   1.412       .  A
C551        C552   1.402       .  A
C551       Br558   1.919       .  S
C552        C553   1.404       .  A
C552        H557   1.083       .  S
C553        C554   1.410   1_556  A
C554       Br555   1.922       .  S
C559        C560   1.404       .  A
C559        C564   1.402       .  A
C559        H566   1.084   1_556  S
C560        C561   1.409       .  A
C561        C562   1.390       .  A
C561       Br568   1.923       .  S
C562        C563   1.402       .  A
C562        H567   1.085       .  S
C563        C564   1.411       .  A
C564       Br565   1.918   1_556  S
C569        C570   1.403   1_554  A
C569        C574   1.392   1_565  A
C569        H576   1.084       .  S
C570        C571   1.412   1_565  A
C571        C572   1.403       .  A
C571       Br578   1.919   1_545  S
C572        C573   1.404       .  A
C572        H577   1.084       .  S
C573        C574   1.409   1_556  A
C574       Br575   1.923       .  S
C579        C580   1.405   1_554  A
C579        C584   1.404       .  A
C579        H586   1.083       .  S
C580        C581   1.409       .  A
C581        C582   1.393       .  A
C581       Br588   1.922       .  S
C582        C583   1.402       .  A
C582        H587   1.084       .  S
C583        C584   1.412   1_556  A
C584       Br585   1.919       .  S
C589        C590   1.407       .  A
C589        C594   1.396       .  A
C589        H596   1.084       .  S
C590        C591   1.413       .  A
C591        C592   1.403       .  A
C591       Br598   1.920       .  S
C592        C593   1.409       .  A
C592        H597   1.084       .  S
C593        C594   1.412       .  A
C594       Br595   1.921       .  S
C599        C600   1.407       .  A
C599        C604   1.399       .  A
C599        H606   1.083       .  S
C600        C601   1.413       .  A
C601        C602   1.402       .  A
C601       Br608   1.921       .  S
C602        C603   1.409       .  A
C602        H607   1.083       .  S
C603        C604   1.414       .  A
C604       Br605   1.922       .  S
C609        C610   1.403       .  A
C609        C614   1.405       .  A
C609        H616   1.084       .  S
C610        C611   1.408       .  A
C611        C612   1.394       .  A
C611       Br618   1.923       .  S
C612        C613   1.404       .  A
C612        H617   1.084       .  S
C613        C614   1.413       .  A
C614       Br615   1.919       .  S
C619        C620   1.403       .  A
C619        C624   1.403       .  A
C619        H626   1.084       .  S
C620        C621   1.414       .  A
C621        C622   1.400       .  A
C621       Br628   1.922       .  S
C622        C623   1.405       .  A
C622        H627   1.083       .  S
C623        C624   1.419       .  A
C624       Br625   1.922       .  S
C629        C630   1.404       .  A
C629        C634   1.396       .  A
C629        H636   1.083       .  S
C630        C631   1.413       .  A
C631        C632   1.400       .  A
C631       Br638   1.922       .  S
C632        C633   1.406       .  A
C632        H637   1.083       .  S
C633        C634   1.413       .  A
C634       Br635   1.922       .  S
C639        C640   1.407       .  A
C639        C644   1.401       .  A
C639        H646   1.084       .  S
C640        C641   1.413       .  A
C641        C642   1.405       .  A
C641       Br648   1.920       .  S
C642        C643   1.409       .  A
C642        H647   1.084       .  S
C643        C644   1.415       .  A
C644       Br645   1.922       .  S
C649        C650   1.405       .  A
C649        C654   1.407       .  A
C649        H656   1.083       .  S
C650        C651   1.410       .  A
C651        C652   1.397       .  A
C651       Br658   1.922       .  S
C652        C653   1.407       .  A
C652        H657   1.083       .  S
C653        C654   1.418       .  A
C654       Br655   1.920       .  S
C659        C660   1.407       .  A
C659        C664   1.402       .  A
C659        H666   1.083       .  S
C660        C661   1.415       .  A
C661        C662   1.395       .  A
C661       Br668   1.924       .  S
C662        C663   1.404       .  A
C662        H667   1.083       .  S
C663        C664   1.415       .  A
C664       Br665   1.922       .  S
C669        C670   1.408       .  A
C669        C674   1.400       .  A
C669        H676   1.083       .  S
C670        C671   1.412       .  A
C671        C672   1.400       .  A
C671       Br678   1.921       .  S
C672        C673   1.409       .  A
C672        H677   1.083       .  S
C673        C674   1.414       .  A
C674       Br675   1.922       .  S
C679        C680   1.407       .  A
C679        C684   1.400       .  A
C679        H686   1.084       .  S
C680        C681   1.416       .  A
C681        C682   1.399       .  A
C681       Br688   1.922       .  S
C682        C683   1.403       .  A
C682        H687   1.084       .  S
C683        C684   1.411       .  A
C684       Br685   1.921       .  S
C689        C690   1.402       .  A
C689        C694   1.400       .  A
C689        H696   1.084       .  S
C690        C691   1.414       .  A
C691        C692   1.406       .  A
C691       Br698   1.920       .  S
C692        C693   1.408       .  A
C692        H697   1.083       .  S
C693        C694   1.418       .  A
C694       Br695   1.923       .  S
C699        C700   1.406       .  A
C699        C704   1.400       .  A
C699        H706   1.083       .  S
C700        C701   1.413       .  A
C701        C702   1.396       .  A
C701       Br708   1.922       .  S
C702        C703   1.403       .  A
C702        H707   1.084       .  S
C703        C704   1.412       .  A
C704       Br705   1.921       .  S
C709        C710   1.403       .  A
C709        C714   1.402       .  A
C709        H716   1.083       .  S
C710        C711   1.414       .  A
C711        C712   1.399       .  A
C711       Br718   1.922       .  S
C712        C713   1.405       .  A
C712        H717   1.083       .  S
C713        C714   1.418       .  A
C714       Br715   1.921       .  S
C719        C720   1.404       .  A
C719        C724   1.404       .  A
C719        H726   1.083       .  S
C720        C721   1.411       .  A
C721        C722   1.399       .  A
C721       Br728   1.921       .  S
C722        C723   1.406       .  A
C722        H727   1.083       .  S
C723        C724   1.416       .  A
C724       Br725   1.920       .  S
C729        C730   1.403       .  A
C729        C734   1.399       .  A
C729        H736   1.083       .  S
C730        C731   1.410       .  A
C731        C732   1.398       .  A
C731       Br738   1.922       .  S
C732        C733   1.407       .  A
C732        H737   1.083       .  S
C733        C734   1.416       .  A
C734       Br735   1.921       .  S
C739        C740   1.405       .  A
C739        C744   1.398       .  A
C739        H746   1.083       .  S
C740        C741   1.420       .  A
C741        C742   1.404       .  A
C741       Br748   1.922       .  S
C742        C743   1.404       .  A
C742        H747   1.083       .  S
C743        C744   1.412       .  A
C744       Br745   1.921       .  S
C749        C750   1.406       .  A
C749        C754   1.396       .  A
C749        H756   1.083       .  S
C750        C751   1.417       .  A
C751        C752   1.411       .  A
C751       Br758   1.919       .  S
C752        C753   1.407       .  A
C752        H757   1.083       .  S
C753        C754   1.410       .  A
C754       Br755   1.923       .  S
C759        C760   1.407       .  A
C759        C764   1.400       .  A
C759        H766   1.084       .  S
C760        C761   1.414       .  A
C761        C762   1.397       .  A
C761       Br768   1.921       .  S
C762        C763   1.403       .  A
C762        H767   1.084       .  S
C763        C764   1.413       .  A
C764       Br765   1.923       .  S
C769        C770   1.407       .  A
C769        C774   1.401       .  A
C769        H776   1.084       .  S
C770        C771   1.413       .  A
C771        C772   1.402       .  A
C771       Br778   1.921       .  S
C772        C773   1.409       .  A
C772        H777   1.084       .  S
C773        C774   1.414       .  A
C774       Br775   1.921       .  S
C779        C780   1.404       .  A
C779        C784   1.399       .  A
C779        H786   1.083       .  S
C780        C781   1.412       .  A
C781        C782   1.396       .  A
C781       Br788   1.922       .  S
C782        C783   1.403       .  A
C782        H787   1.084       .  S
C783        C784   1.412       .  A
C784       Br785   1.921       .  S
C789        C790   1.408       .  A
C789        C794   1.400       .  A
C789        H796   1.084       .  S
C790        C791   1.413       .  A
C791        C792   1.401       .  A
C791       Br798   1.921       .  S
C792        C793   1.407       .  A
C792        H797   1.085       .  S
C793        C794   1.412       .  A
C794       Br795   1.920       .  S
C799        C800   1.406       .  A
C799        C804   1.397       .  A
C799        H806   1.083       .  S
C800        C801   1.415       .  A
C801        C802   1.398       .  A
C801       Br808   1.922       .  S
C802        C803   1.404       .  A
C802        H807   1.083       .  S
C803        C804   1.414       .  A
C804       Br805   1.923       .  S
C809        C810   1.404       .  A
C809        C814   1.394       .  A
C809        H816   1.084       .  S
C810        C811   1.416       .  A
C811        C812   1.402       .  A
C811       Br818   1.923       .  S
C812        C813   1.408       .  A
C812        H817   1.084       .  S
C813        C814   1.415       .  A
C814       Br815   1.923       .  S
C819        C820   1.406       .  A
C819        C824   1.401       .  A
C819        H826   1.084       .  S
C820        C821   1.413       .  A
C821        C822   1.403       .  A
C821       Br828   1.921       .  S
C822        C823   1.409       .  A
C822        H827   1.084       .  S
C823        C824   1.416       .  A
C824       Br825   1.922       .  S
C829        C830   1.406       .  A
C829        C834   1.405       .  A
C829        H836   1.083       .  S
C830        C831   1.412       .  A
C831        C832   1.397       .  A
C831       Br838   1.922       .  S
C832        C833   1.404       .  A
C832        H837   1.083       .  S
C833        C834   1.413       .  A
C834       Br835   1.920       .  S
C839        C840   1.404       .  A
C839        C844   1.397       .  A
C839        H846   1.084       .  S
C840        C841   1.412       .  A
C841        C842   1.400       .  A
C841       Br848   1.921       .  S
C842        C843   1.404       .  A
C842        H847   1.084       .  S
C843        C844   1.413       .  A
C844       Br845   1.923       .  S
C849        C850   1.404       .  A
C849        C854   1.406       .  A
C849        H856   1.082       .  S
C850        C851   1.408       .  A
C851        C852   1.399       .  A
C851       Br858   1.921       .  S
C852        C853   1.406       .  A
C852        H857   1.082       .  S
C853        C854   1.417       .  A
C854       Br855   1.920       .  S
C859        C860   1.405       .  A
C859        C864   1.396       .  A
C859        H866   1.083       .  S
C860        C861   1.414       .  A
C861        C862   1.401       .  A
C861       Br868   1.921       .  S
C862        C863   1.407       .  A
C862        H867   1.083       .  S
C863        C864   1.415       .  A
C864       Br865   1.923       .  S
C869        C870   1.402       .  A
C869        C874   1.396       .  A
C869        H876   1.085       .  S
C870        C871   1.411       .  A
C871        C872   1.407       .  A
C871       Br878   1.918       .  S
C872        C873   1.406       .  A
C872        H877   1.083       .  S
C873        C874   1.409       .  A
C874       Br875   1.921       .  S
C879        C880   1.403       .  A
C879        C884   1.398       .  A
C879        H886   1.085       .  S
C880        C881   1.411       .  A
C881        C882   1.399       .  A
C881       Br888   1.921       .  S
C882        C883   1.405       .  A
C882        H887   1.084       .  S
C883        C884   1.414       .  A
C884       Br885   1.922       .  S
C889        C890   1.405       .  A
C889        C894   1.401       .  A
C889        H896   1.083       .  S
C890        C891   1.420       .  A
C891        C892   1.399       .  A
C891       Br898   1.924       .  S
C892        C893   1.402       .  A
C892        H897   1.083       .  S
C893        C894   1.415       .  A
C894       Br895   1.922       .  S
C899        C900   1.408       .  A
C899        C904   1.400       .  A
C899        H906   1.083       .  S
C900        C901   1.415       .  A
C901        C902   1.403       .  A
C901       Br908   1.922       .  S
C902        C903   1.407       .  A
C902        H907   1.083       .  S
C903        C904   1.412       .  A
C904       Br905   1.921       .  S
C909        C910   1.405       .  A
C909        C914   1.398       .  A
C909        H916   1.083       .  S
C910        C911   1.416       .  A
C911        C912   1.399       .  A
C911       Br918   1.922       .  S
C912        C913   1.404       .  A
C912        H917   1.084       .  S
C913        C914   1.414       .  A
C914       Br915   1.923       .  S
C919        C920   1.406       .  A
C919        C924   1.401       .  A
C919        H926   1.085       .  S
C920        C921   1.411       .  A
C921        C922   1.399       .  A
C921       Br928   1.921       .  S
C922        C923   1.407       .  A
C922        H927   1.084       .  S
C923        C924   1.414       .  A
C924       Br925   1.921       .  S
C929        C930   1.404       .  A
C929        C934   1.406       .  A
C929        H936   1.084       .  S
C930        C931   1.410       .  A
C931        C932   1.397       .  A
C931       Br938   1.923       .  S
C932        C933   1.404       .  A
C932        H937   1.084       .  S
C933        C934   1.414       .  A
C934       Br935   1.918       .  S
C939        C940   1.409       .  A
C939        C944   1.402       .  A
C939        H946   1.084       .  S
C940        C941   1.414       .  A
C941        C942   1.399       .  A
C941       Br948   1.922       .  S
C942        C943   1.405       .  A
C942        H947   1.084       .  S
C943        C944   1.412       .  A
C944       Br945   1.920       .  S
C949        C950   1.405       .  A
C949        C954   1.402       .  A
C949        H956   1.083       .  S
C950        C951   1.415       .  A
C951        C952   1.400       .  A
C951       Br958   1.922       .  S
C952        C953   1.404       .  A
C952        H957   1.083       .  S
C953        C954   1.410       .  A
C954       Br955   1.919       .  S
C959        C960   1.406       .  A
C959        C964   1.400       .  A
C959        H966   1.084       .  S
C960        C961   1.416       .  A
C961        C962   1.401       .  A
C961       Br968   1.923       .  S
C962        C963   1.406       .  A
C962        H967   1.085       .  S
C963        C964   1.416       .  A
C964       Br965   1.922       .  S
C969        C970   1.405       .  A
C969        C974   1.400       .  A
C969        H976   1.083       .  S
C970        C971   1.419       .  A
C971        C972   1.403       .  A
C971       Br978   1.922       .  S
C972        C973   1.404       .  A
C972        H977   1.083       .  S
C973        C974   1.416       .  A
C974       Br975   1.922       .  S
C979        C980   1.407       .  A
C979        C984   1.404       .  A
C979        H986   1.083       .  S
C980        C981   1.421       .  A
C981        C982   1.400       .  A
C981       Br988   1.924       .  S
C982        C983   1.401       .  A
C982        H987   1.083       .  S
C983        C984   1.414       .  A
C984       Br985   1.921       .  S
C989        C990   1.402       .  A
C989        C994   1.394       .  A
C989        H996   1.083       .  S
C990        C991   1.414       .  A
C991        C992   1.402       .  A
C991       Br998   1.921       .  S
C992        C993   1.407       .  A
C992        H997   1.083       .  S
C993        C994   1.416       .  A
C994       Br995   1.925       .  S
C999       C1000   1.405       .  A
C999       C1004   1.398       .  A
C999       H1006   1.084       .  S
C1000      C1001   1.414       .  A
C1001      C1002   1.397       .  A
C1001     Br1008   1.922       .  S
C1002      C1003   1.404       .  A
C1002      H1007   1.084       .  S
C1003      C1004   1.413       .  A
C1004     Br1005   1.921       .  S
C1009      C1010   1.402       .  A
C1009      C1014   1.400       .  A
C1009      H1016   1.083       .  S
C1010      C1011   1.416       .  A
C1011      C1012   1.403       .  A
C1011     Br1018   1.922       .  S
C1012      C1013   1.406       .  A
C1012      H1017   1.083       .  S
C1013      C1014   1.419       .  A
C1014     Br1015   1.923       .  S
C1019      C1020   1.405       .  A
C1019      C1024   1.405       .  A
C1019      H1026   1.082       .  S
C1020      C1021   1.413       .  A
C1021      C1022   1.399       .  A
C1021     Br1028   1.922       .  S
C1022      C1023   1.404       .  A
C1022      H1027   1.083       .  S
C1023      C1024   1.414       .  A
C1024     Br1025   1.919       .  S
C1029      C1030   1.408       .  A
C1029      C1034   1.400       .  A
C1029      H1036   1.083       .  S
C1030      C1031   1.413       .  A
C1031      C1032   1.402       .  A
C1031     Br1038   1.920       .  S
C1032      C1033   1.409       .  A
C1032      H1037   1.083       .  S
C1033      C1034   1.414       .  A
C1034     Br1035   1.922       .  S
C1039      C1040   1.405       .  A
C1039      C1044   1.396       .  A
C1039      H1046   1.083       .  S
C1040      C1041   1.415       .  A
C1041      C1042   1.400       .  A
C1041     Br1048   1.922       .  S
C1042      C1043   1.406       .  A
C1042      H1047   1.083       .  S
C1043      C1044   1.416       .  A
C1044     Br1045   1.924       .  S
C1049      C1050   1.405       .  A
C1049      C1054   1.402       .  A
C1049      H1056   1.083       .  S
C1050      C1051   1.413       .  A
C1051      C1052   1.404       .  A
C1051     Br1058   1.921       .  S
C1052      C1053   1.408       .  A
C1052      H1057   1.082       .  S
C1053      C1054   1.416       .  A
C1054     Br1055   1.921       .  S
C1059      C1060   1.405       .  A
C1059      C1064   1.398       .  A
C1059      H1066   1.084       .  S
C1060      C1061   1.415       .  A
C1061      C1062   1.398       .  A
C1061     Br1068   1.923       .  S
C1062      C1063   1.406       .  A
C1062      H1067   1.083       .  S
C1063      C1064   1.415       .  A
C1064     Br1065   1.922       .  S
C1069      C1070   1.405       .  A
C1069      C1074   1.404       .  A
C1069      H1076   1.083       .  S
C1070      C1071   1.415       .  A
C1071      C1072   1.398       .  A
C1071     Br1078   1.922       .  S
C1072      C1073   1.403       .  A
C1072      H1077   1.083       .  S
C1073      C1074   1.417       .  A
C1074     Br1075   1.922       .  S
C1079      C1080   1.402       .  A
C1079      C1084   1.392       .  A
C1079      H1086   1.084       .  S
C1080      C1081   1.413       .  A
C1081      C1082   1.404       .  A
C1081     Br1088   1.921       .  S
C1082      C1083   1.408       .  A
C1082      H1087   1.082       .  S
C1083      C1084   1.410       .  A
C1084     Br1085   1.922       .  S
C1089      C1090   1.408       .  A
C1089      C1094   1.400       .  A
C1089      H1096   1.083       .  S
C1090      C1091   1.414       .  A
C1091      C1092   1.403       .  A
C1091     Br1098   1.921       .  S
C1092      C1093   1.409       .  A
C1092      H1097   1.083       .  S
C1093      C1094   1.414       .  A
C1094     Br1095   1.922       .  S
C1099      C1100   1.407       .  A
C1099      C1104   1.400       .  A
C1099      H1106   1.083       .  S
C1100      C1101   1.414       .  A
C1101      C1102   1.394       .  A
C1101     Br1108   1.923       .  S
C1102      C1103   1.404       .  A
C1102      H1107   1.083       .  S
C1103      C1104   1.413       .  A
C1104     Br1105   1.921       .  S
C1109      C1110   1.406       .  A
C1109      C1114   1.407       .  A
C1109      H1116   1.084       .  S
C1110      C1111   1.411       .  A
C1111      C1112   1.395       .  A
C1111     Br1118   1.923       .  S
C1112      C1113   1.404       .  A
C1112      H1117   1.084       .  S
C1113      C1114   1.414       .  A
C1114     Br1115   1.919       .  S
C1119      C1120   1.403       .  A
C1119      C1124   1.401       .  A
C1119      H1126   1.083       .  S
C1120      C1121   1.417       .  A
C1121      C1122   1.401       .  A
C1121     Br1128   1.922       .  S
C1122      C1123   1.404       .  A
C1122      H1127   1.083       .  S
C1123      C1124   1.416       .  A
C1124     Br1125   1.921       .  S
C1129      C1130   1.407       .  A
C1129      C1134   1.401       .  A
C1129      H1136   1.083       .  S
C1130      C1131   1.417       .  A
C1131      C1132   1.397       .  A
C1131     Br1138   1.923       .  S
C1132      C1133   1.403       .  A
C1132      H1137   1.084       .  S
C1133      C1134   1.413       .  A
C1134     Br1135   1.921       .  S
C1139      C1140   1.406       .  A
C1139      C1144   1.400       .  A
C1139      H1146   1.083       .  S
C1140      C1141   1.417       .  A
C1141      C1142   1.397       .  A
C1141     Br1148   1.925       .  S
C1142      C1143   1.405       .  A
C1142      H1147   1.083       .  S
C1143      C1144   1.414       .  A
C1144     Br1145   1.920       .  S
C1149      C1150   1.404       .  A
C1149      C1154   1.401       .  A
C1149      H1156   1.082       .  S
C1150      C1151   1.418       .  A
C1151      C1152   1.402       .  A
C1151     Br1158   1.923       .  S
C1152      C1153   1.406       .  A
C1152      H1157   1.082       .  S
C1153      C1154   1.418       .  A
C1154     Br1155   1.922       .  S
C1159      C1160   1.405       .  A
C1159      C1164   1.406       .  A
C1159      H1166   1.083       .  S
C1160      C1161   1.412       .  A
C1161      C1162   1.397       .  A
C1161     Br1168   1.923       .  S
C1162      C1163   1.407       .  A
C1162      H1167   1.083       .  S
C1163      C1164   1.416       .  A
C1164     Br1165   1.919       .  S
C1169      C1170   1.403       .  A
C1169      C1174   1.395       .  A
C1169      H1176   1.083       .  S
C1170      C1171   1.413       .  A
C1171      C1172   1.400       .  A
C1171     Br1178   1.921       .  S
C1172      C1173   1.405       .  A
C1172      H1177   1.083       .  S
C1173      C1174   1.410       .  A
C1174     Br1175   1.922       .  S
C1179      C1180   1.403       .  A
C1179      C1184   1.397       .  A
C1179      H1186   1.084       .  S
C1180      C1181   1.413       .  A
C1181      C1182   1.399       .  A
C1181     Br1188   1.922       .  S
C1182      C1183   1.405       .  A
C1182      H1187   1.084       .  S
C1183      C1184   1.413       .  A
C1184     Br1185   1.922       .  S
