geometry optimzed in LAMMPS
_audit_creation_date              2020-11-30 
_audit_creation_method            'lammps2cif' 
_symmetry_space_group_name_H-M    'P1' 
_symmetry_Int_Tables_number       1 
_symmetry_cell_setting            triclinic 
loop_ 
_symmetry_equiv_pos_as_xyz 
  x,y,z 
_cell_length_a                    44.72456372 
_cell_length_b                    44.59210160610453 
_cell_length_c                    44.58124997482331 
_cell_angle_alpha                 90.0814510871001 
_cell_angle_beta                  89.9934506128438 
_cell_angle_gamma                 90.1115588826045 
loop_ 
_atom_site_label 
_atom_site_type_symbol 
_atom_site_fract_x 
_atom_site_fract_y 
_atom_site_fract_z 
_atom_site_charge 
N1          N  0.01054990  0.25996378  0.25919188    -0.03400
C2          C  0.01598482  0.23014545  0.26302725    -0.00800
C3          C  0.01650366  0.21553756  0.23563575    -0.23700
C4          C  0.01106384  0.23663379  0.21421001    -0.23900
C5          C  0.00737272  0.26360864  0.22898894    -0.00900
H6          H  0.01953940  0.19177846  0.23169308     0.12900
H7          H  0.00980917  0.23272735  0.19027011     0.12900
O8          O  0.99709509  0.44513571  0.40890302    -0.86400
O9          O  0.99883164  0.44989852  0.57904750    -0.86600
O10         O  0.04625485  0.41080766  0.49499245    -0.88200
O11         O  0.94988460  0.41172440  0.49503473    -0.87000
O12         O  0.91305460  0.44745365  0.49098752    -0.86600
O13         O  0.08313895  0.44659592  0.49201641    -0.88000
O14         O  0.00120348  0.41261031  0.54357592    -0.86400
O15         O  0.00083338  0.40976762  0.44608548    -0.86000
Zr16       Zr  0.99818270  0.43623122  0.49410210     2.84300
O17         O  0.96749019  0.46721063  0.52339922    -1.08000
O18         O  0.02790246  0.46564640  0.46270579    -1.08700
C19         C  0.99945353  0.41776380  0.41826230     1.06700
C20         C  0.00092885  0.42211705  0.57099924     1.06600
C21         C  0.07388473  0.41909723  0.49357884     1.09600
C22         C  0.92236895  0.41997694  0.49274625     1.07400
H23         H  0.04105128  0.45487068  0.53584803     0.33000
O24         O  0.02865202  0.46720051  0.52314230    -1.29000
H25         H  0.95478529  0.45260017  0.45082291     0.32600
O26         O  0.96711498  0.46542734  0.46320171    -1.30600
O27         O  0.99804991  0.54691846  0.57748341    -0.86400
O28         O  0.99539763  0.54349305  0.40641683    -0.87900
O29         O  0.08347864  0.49449981  0.54163271    -0.86500
O30         O  0.91259832  0.49565937  0.54149725    -0.86500
O31         O  0.91243435  0.49889916  0.44326834    -0.86200
O32         O  0.08126641  0.48986430  0.44131007    -0.86000
O33         O  0.04749350  0.58149234  0.49230412    -0.86400
O34         O  0.95141168  0.58329216  0.48934654    -0.85900
O35         O  0.08409013  0.54540793  0.49019238    -0.86900
O36         O  0.91428440  0.54765518  0.49201316    -0.86100
O37         O  0.04669856  0.49763927  0.57752872    -0.86500
O38         O  0.04389665  0.49252936  0.40596476    -0.86200
O39         O  0.94889010  0.49417033  0.40730571    -0.85900
O40         O  0.94961830  0.49775300  0.57721170    -0.86300
O41         O  0.00023917  0.58285086  0.54068970    -0.86600
O42         O  0.99932245  0.58063243  0.44198453    -0.87900
Zr43       Zr  0.99824505  0.49799922  0.55274946     2.83100
Zr44       Zr  0.99705827  0.49506790  0.43228657     2.83500
Zr45       Zr  0.05931488  0.49608356  0.49177070     2.84100
Zr46       Zr  0.93705337  0.49717962  0.49248300     2.83400
Zr47       Zr  0.99900120  0.55711015  0.49156590     2.84200
O48         O  0.96784666  0.52665613  0.46201592    -1.08500
O49         O  0.02927855  0.52712659  0.52196558    -1.08000
C50         C  0.99920662  0.57443609  0.56851327     1.06700
C51         C  0.99698862  0.57130769  0.41459398     1.09300
C52         C  0.07430418  0.49554938  0.56927452     1.06800
C53         C  0.92198619  0.49636763  0.56894056     1.07200
C54         C  0.92145255  0.49680601  0.41573967     1.06800
C55         C  0.07135092  0.48957352  0.41394807     1.06300
C56         C  0.07502889  0.57299747  0.49143687     1.06800
C57         C  0.92370932  0.57519472  0.49041297     1.06300
H58         H  0.04100236  0.53795715  0.44802788     0.33000
O59         O  0.02864591  0.52594693  0.46115164    -1.29600
H60         H  0.95565828  0.54083844  0.53464525     0.33000
O61         O  0.96788696  0.52795194  0.52227012    -1.31000
N62         N  0.99353238  0.73097092  0.72978998    -0.03400
C63         C  0.98658247  0.72665535  0.75930197    -0.00800
C64         C  0.98787651  0.75341034  0.77488171    -0.23700
C65         C  0.99572644  0.77498882  0.75477901    -0.23900
C66         C  0.99919218  0.76101336  0.72724360    -0.00900
H67         H  0.98430893  0.75677467  0.79866883     0.12900
H68         H  0.99818634  0.79862859  0.75976239     0.12900
N69         N  0.01094599  0.26288471  0.72786856    -0.03400
C70         C  0.01741698  0.23344075  0.72305645    -0.00800
C71         C  0.01840071  0.21785752  0.74977659    -0.23700
C72         C  0.01208125  0.23793973  0.77191755    -0.23900
C73         C  0.00734350  0.26530101  0.75815820    -0.00900
H74         H  0.02234110  0.19410040  0.75274269     0.12900
H75         H  0.01104603  0.23307366  0.79567809     0.12900
N76         N  0.98251516  0.73184040  0.25889191    -0.03400
C77         C  0.97383107  0.72870016  0.22956992    -0.00800
C78         C  0.97138310  0.75652583  0.21613461    -0.23700
C79         C  0.97902715  0.77738622  0.23714736    -0.23900
C80         C  0.98601591  0.76204084  0.26310993    -0.00900
H81         H  0.96597057  0.76123476  0.19295807     0.12900
H82         H  0.97961442  0.80141552  0.23375559     0.12900
O83         O  0.99823471  0.04619346  0.41015027    -0.86400
O84         O  0.00182343  0.04745692  0.57959958    -0.86600
O85         O  0.94909324  0.08110909  0.49448783    -0.88200
O86         O  0.04649875  0.08238359  0.49240962    -0.87000
O87         O  0.08274925  0.04616221  0.49528961    -0.86600
O88         O  0.91293787  0.04461816  0.49741730    -0.88000
O89         O  0.99782784  0.08277450  0.54224321    -0.86400
O90         O  0.99518185  0.08224469  0.44692298    -0.86000
Zr91       Zr  0.99790040  0.05683649  0.49465865     2.84300
O92         O  0.02870979  0.02770735  0.52559481    -1.08000
O93         O  0.96754516  0.02639564  0.46462121    -1.08700
C94         C  0.99677535  0.07377264  0.41935996     1.06700
C95         C  0.00031960  0.07478891  0.56986598     1.06600
C96         C  0.92163725  0.07225297  0.49610002     1.09600
C97         C  0.07408885  0.07374852  0.49353502     1.07400
H98         H  0.95618028  0.03945337  0.53849064     0.33000
O99         O  0.96861746  0.02679143  0.52608470    -1.29000
H100        H  0.04046715  0.03940882  0.45155926     0.32600
O101        O  0.02806549  0.02684542  0.46410704    -1.30600
O102        O  0.00069633  0.94744218  0.58081838    -0.86400
O103        O  0.99912208  0.94645704  0.41013369    -0.87900
O104        O  0.91406733  0.99526749  0.54441363    -0.86500
O105        O  0.08467769  0.99569059  0.54250833    -0.86500
O106        O  0.08306529  0.99717958  0.44700595    -0.86200
O107        O  0.91245047  0.99519944  0.44827216    -0.86000
O108        O  0.95047914  0.91084377  0.49760085    -0.86400
O109        O  0.04708109  0.91159646  0.49374270    -0.85900
O110        O  0.91409029  0.94699494  0.49578969    -0.86900
O111        O  0.08309700  0.94829787  0.49497321    -0.86100
O112        O  0.94977141  0.99869270  0.58139188    -0.86500
O113        O  0.94758249  0.99681766  0.41062374    -0.86200
O114        O  0.04739018  0.99487635  0.40990707    -0.85900
O115        O  0.04956844  0.99751955  0.58008976    -0.86300
O116        O  0.99915582  0.91169070  0.54365316    -0.86600
O117        O  0.99810892  0.91121650  0.44766964    -0.87900
Zr118      Zr  0.99934435  0.99727121  0.55691454     2.83100
Zr119      Zr  0.99771583  0.99632126  0.43381072     2.83500
Zr120      Zr  0.93841747  0.99611281  0.49601237     2.84100
Zr121      Zr  0.05827988  0.99714256  0.49504162     2.83400
Zr122      Zr  0.99858002  0.93665247  0.49562164     2.84200
O123        O  0.02822910  0.96672102  0.46467339    -1.08500
O124        O  0.96883454  0.96657561  0.52673132    -1.08000
C125        C  0.00026858  0.91989463  0.57134695     1.06700
C126        C  0.99884554  0.91905566  0.41986674     1.09300
C127        C  0.92229400  0.99715753  0.57205374     1.06800
C128        C  0.07691706  0.99624617  0.57035543     1.07200
C129        C  0.07481435  0.99583241  0.41937525     1.06800
C130        C  0.92025742  0.99579527  0.42042830     1.06300
C131        C  0.92294239  0.91943750  0.49675804     1.06800
C132        C  0.07456231  0.92058135  0.49424910     1.06300
H133        H  0.95542711  0.95320366  0.45278506     0.33000
O134        O  0.96800667  0.96600455  0.46494226    -1.29600
H135        H  0.04168982  0.95429662  0.53808870     0.33000
O136        O  0.02892224  0.96684743  0.52595120    -1.31000
N137        N  0.23387652  0.23113150  0.49615331    -0.03400
C138        C  0.23160767  0.26154433  0.49284526    -0.00800
C139        C  0.25949148  0.27487051  0.49527633    -0.23700
C140        C  0.27962279  0.25251113  0.50013494    -0.23900
C141        C  0.26366030  0.22605120  0.50047356    -0.00900
H142        H  0.26466297  0.29855644  0.49396543     0.12900
H143        H  0.30357454  0.25514289  0.50251842     0.12900
N144        N  0.76457235  0.23075983  0.49375794    -0.03400
C145        C  0.76873718  0.26073433  0.48941468    -0.00800
C146        C  0.74227163  0.27607947  0.49377776    -0.23700
C147        C  0.72102239  0.25523180  0.50089233    -0.23900
C148        C  0.73498812  0.22764035  0.50057510    -0.00900
H149        H  0.73890176  0.30007050  0.49238072     0.12900
H150        H  0.69761153  0.25964428  0.50513883     0.12900
N151        N  0.76318505  0.76282449  0.49165793    -0.03400
C152        C  0.73362403  0.76619025  0.48468426    -0.00800
C153        C  0.71940115  0.73867084  0.48386648    -0.23700
C154        C  0.74035497  0.71761503  0.49049852    -0.23900
C155        C  0.76700150  0.73265312  0.49520239    -0.00900
H156        H  0.69596139  0.73436748  0.47956031     0.12900
H157        H  0.73663566  0.69363420  0.49126782     0.12900
N158        N  0.23326551  0.76324773  0.50202802    -0.03400
C159        C  0.23001193  0.73288073  0.49930326    -0.00800
C160        C  0.25708639  0.71859353  0.50338772    -0.23700
C161        C  0.27782886  0.74031543  0.50864607    -0.23900
C162        C  0.26298393  0.76743724  0.50773732    -0.00900
H163        H  0.26128980  0.69470423  0.50263993     0.12900
H164        H  0.30151652  0.73673962  0.51208446     0.12900
N165        N  0.73316777  0.97434384  0.26077174    -0.03400
C166        C  0.76355269  0.97680207  0.26298474    -0.00800
C167        C  0.77683120  0.97283075  0.23529671    -0.23700
C168        C  0.75433642  0.96800626  0.21521963    -0.23900
C169        C  0.72778430  0.96921030  0.23107733    -0.00900
H170        H  0.80047458  0.97378922  0.23017811     0.12900
H171        H  0.75700100  0.96517181  0.19124513     0.12900
O172        O  0.44918699  0.08144789  0.49177770    -0.86400
O173        O  0.44898915  0.91134932  0.49460636    -0.86600
O174        O  0.41439600  0.99556674  0.44374035    -0.88200
O175        O  0.41203054  0.99538308  0.54188347    -0.87000
O176        O  0.44774533  0.99282807  0.57876708    -0.86600
O177        O  0.45134739  0.99675408  0.40803603    -0.88000
O178        O  0.41328245  0.94821793  0.49121021    -0.86400
O179        O  0.41324321  0.04452154  0.48926921    -0.86000
Zr180      Zr  0.43807353  0.99639961  0.49305120     2.84300
O181        O  0.46718966  0.96616770  0.52429357    -1.08000
O182        O  0.46907100  0.02648122  0.46335857    -1.08700
C183        C  0.42177854  0.07213672  0.48993125     1.06700
C184        C  0.42168092  0.92065885  0.49279463     1.06600
C185        C  0.42357716  0.99633698  0.41626677     1.09600
C186        C  0.42032975  0.99315966  0.56967503     1.07400
H187        H  0.45651162  0.95290896  0.45092201     0.33000
O188        O  0.46869833  0.96539496  0.46378729    -1.29000
H189        H  0.45438633  0.03982492  0.53575161     0.32600
O190        O  0.46738193  0.02740185  0.52367041    -1.30600
O191        O  0.54735117  0.91124881  0.49435015    -0.86400
O192        O  0.54815720  0.08168745  0.49655910    -0.87900
O193        O  0.50105686  0.94743607  0.40999940    -0.86500
O194        O  0.49645907  0.94873239  0.58052150    -0.86500
O195        O  0.49408813  0.04570912  0.57937420    -0.86200
O196        O  0.49939536  0.04267208  0.40764598    -0.86000
O197        O  0.58473182  0.99383979  0.44777062    -0.86400
O198        O  0.58164665  0.99867901  0.54532167    -0.85900
O199        O  0.54917347  0.99153109  0.41071758    -0.86900
O200        O  0.54460090  0.99684984  0.58098059    -0.86100
O201        O  0.49891293  0.91071989  0.44604968    -0.86500
O202        O  0.50016114  0.08019828  0.44308518    -0.86200
O203        O  0.49784914  0.08214212  0.54305721    -0.85900
O204        O  0.49505847  0.91133792  0.54504419    -0.86300
O205        O  0.58320108  0.94818922  0.49704935    -0.86600
O206        O  0.58383238  0.04464883  0.49505012    -0.87900
Zr207      Zr  0.49811198  0.93527533  0.49528829     2.83100
Zr208      Zr  0.49862438  0.05760322  0.49364388     2.83500
Zr209      Zr  0.49969122  0.99563343  0.43422373     2.84100
Zr210      Zr  0.49664218  0.99688498  0.55484206     2.83400
Zr211      Zr  0.55839848  0.99654789  0.49584093     2.84200
O212        O  0.52761084  0.02719056  0.52512774    -1.08500
O213        O  0.52886987  0.96567007  0.46555884    -1.08000
C214        C  0.57477672  0.92054791  0.49543315     1.06700
C215        C  0.57558361  0.07231627  0.49618319     1.09300
C216        C  0.50040450  0.91990676  0.41853970     1.06800
C217        C  0.49516530  0.92091489  0.57254014     1.07200
C218        C  0.49575342  0.07327944  0.57067281     1.06800
C219        C  0.49981773  0.07040625  0.41563192     1.06300
C220        C  0.57659054  0.99139868  0.42003687     1.06800
C221        C  0.57227961  0.99788067  0.57272639     1.06300
H222        H  0.54248501  0.03887236  0.45165614     0.33000
O223        O  0.52955417  0.02682563  0.46419226    -1.29600
H224        H  0.54002212  0.95378711  0.53884438     0.33000
O225        O  0.52781001  0.96609734  0.52590060    -1.31000
N226        N  0.26507414  0.97934004  0.73112665    -0.03400
C227        C  0.26865159  0.97239994  0.76085861    -0.00800
C228        C  0.24100791  0.96921433  0.77451353    -0.23700
C229        C  0.21984989  0.97440137  0.75324073    -0.23900
C230        C  0.23476769  0.98081728  0.72691956    -0.00900
H231        H  0.23651194  0.96482017  0.79795527     0.12900
H232        H  0.19589430  0.97401191  0.75672308     0.12900
N233        N  0.73162018  0.98913649  0.72854638    -0.03400
C234        C  0.76181752  0.99287150  0.72609805    -0.00800
C235        C  0.77530367  0.98910607  0.75375710    -0.23700
C236        C  0.75305598  0.98312692  0.77391146    -0.23900
C237        C  0.72651084  0.98347528  0.75812916    -0.00900
H238        H  0.79895736  0.99042130  0.75873548     0.12900
H239        H  0.75583722  0.97965476  0.79777411     0.12900
N240        N  0.26312096  0.00297884  0.26011175    -0.03400
C241        C  0.26743375  0.00610676  0.22992381    -0.00800
C242        C  0.24039596  0.00533277  0.21489206    -0.23700
C243        C  0.21868381  0.00148905  0.23593093    -0.23900
C244        C  0.23285730  0.99989103  0.26340138    -0.00900
H245        H  0.23687067  0.00671894  0.19090941     0.12900
H246        H  0.19491801  0.99977335  0.23162848     0.12900
O247        O  0.58542702  0.99982507  0.04542852    -0.86400
O248        O  0.41718323  0.99459010  0.04732834    -0.86600
O249        O  0.50166761  0.04966585  0.07891364    -0.88200
O250        O  0.50172023  0.95081361  0.08264913    -0.87000
O251        O  0.50440448  0.91370824  0.04691495    -0.86600
O252        O  0.49874857  0.08500313  0.04165412    -0.88000
O253        O  0.45405413  0.99557625  0.08322857    -0.86400
O254        O  0.54905489  0.00207623  0.08179351    -0.86000
Zr255      Zr  0.50117668  0.99922357  0.05669528     2.84300
O256        O  0.47173940  0.96742653  0.02718914    -1.08000
O257        O  0.53007710  0.02941423  0.02518221    -1.08700
C258        C  0.57648173  0.00093069  0.07308565     1.06700
C259        C  0.42649972  0.99444853  0.07488057     1.06600
C260        C  0.50051411  0.07708215  0.06939579     1.09600
C261        C  0.50333182  0.92305038  0.07435863     1.07400
H262        H  0.45677120  0.04016137  0.03918740     0.33000
O263        O  0.46931018  0.02781858  0.02655667    -1.29000
H264        H  0.54479545  0.95708045  0.03982728     0.32600
O265        O  0.53204675  0.96892261  0.02699813    -1.30600
O266        O  0.41500239  0.99416354  0.94783889    -0.86400
O267        O  0.58443898  0.99715713  0.94546454    -0.87900
O268        O  0.44944640  0.08122363  0.99728999    -0.86500
O269        O  0.45445742  0.91124766  0.00128138    -0.86500
O270        O  0.55196643  0.91440587  0.99761426    -0.86200
O271        O  0.54562252  0.08417671  0.99504381    -0.86000
O272        O  0.50042107  0.04415228  0.90956494    -0.86400
O273        O  0.49996050  0.94631373  0.91191737    -0.85900
O274        O  0.49651430  0.08121967  0.94513775    -0.86900
O275        O  0.50341356  0.91073286  0.94900120    -0.86100
O276        O  0.41369578  0.04413218  0.99699978    -0.86500
O277        O  0.58347605  0.04950023  0.99797671    -0.86200
O278        O  0.58783977  0.95134730  0.99877687    -0.85900
O279        O  0.41701882  0.94646596  0.99870281    -0.86300
O280        O  0.45110863  0.99680592  0.91126076    -0.86600
O281        O  0.54702323  0.99686522  0.91002411    -0.87900
Zr282      Zr  0.43979280  0.99592395  0.99705578     2.83100
Zr283      Zr  0.56137418  0.99929085  0.99576330     2.83500
Zr284      Zr  0.49830664  0.05769063  0.99458136     2.84100
Zr285      Zr  0.50245090  0.93710104  0.99744540     2.83400
Zr286      Zr  0.49959400  0.99607001  0.93582770     2.84200
O287        O  0.53150646  0.96753606  0.96618821    -1.08500
O288        O  0.46837018  0.02632672  0.96519230    -1.08000
C289        C  0.42368458  0.99520278  0.92010249     1.06700
C290        C  0.57466224  0.99670655  0.91804186     1.09300
C291        C  0.42214349  0.07189714  0.99750153     1.06800
C292        C  0.42671824  0.91928396  0.00064185     1.07200
C293        C  0.57937068  0.92358148  0.99866682     1.06800
C294        C  0.57335747  0.07666978  0.99724460     1.06300
C295        C  0.49855429  0.07190227  0.91774764     1.06800
C296        C  0.50189735  0.91886718  0.92117634     1.06300
H297        H  0.54175721  0.04053872  0.95217855     0.33000
O298        O  0.52972567  0.02787403  0.96498450    -1.29600
H299        H  0.45826675  0.95230769  0.95491857     0.33000
O300        O  0.47050770  0.96551555  0.96700796    -1.31000
N301        N  0.49823522  0.23314412  0.23022991    -0.03400
C302        C  0.49512271  0.26345590  0.22778625    -0.00800
C303        C  0.49639815  0.27710042  0.25558318    -0.23700
C304        C  0.50050344  0.25490465  0.27605934    -0.23900
C305        C  0.50157380  0.22825683  0.26026441    -0.00900
H306        H  0.49524283  0.30088089  0.26036156     0.12900
H307        H  0.50264185  0.25785436  0.30007096     0.12900
N308        N  0.51040496  0.76241652  0.22989486    -0.03400
C309        C  0.51781410  0.73301678  0.22597972    -0.00800
C310        C  0.51842829  0.71826546  0.25323333    -0.23700
C311        C  0.51117860  0.73881324  0.27464580    -0.23900
C312        C  0.50624177  0.76563401  0.25999358    -0.00900
H313        H  0.52269199  0.69469491  0.25707215     0.12900
H314        H  0.50975868  0.73464741  0.29852214     0.12900
N315        N  0.50298152  0.76172860  0.76091666    -0.03400
C316        C  0.50862603  0.73203262  0.76524007    -0.00800
C317        C  0.50413578  0.71620638  0.73896393    -0.23700
C318        C  0.49535638  0.73648019  0.71777479    -0.23900
C319        C  0.49474419  0.76433193  0.73152990    -0.00900
H320        H  0.50609647  0.69221674  0.73578455     0.12900
H321        H  0.49043646  0.73141285  0.69454236     0.12900
N322        N  0.50556158  0.23097123  0.76085803    -0.03400
C323        C  0.50304284  0.26104204  0.76557539    -0.00800
C324        C  0.50748497  0.27660973  0.73920050    -0.23700
C325        C  0.51271887  0.25575083  0.71738488    -0.23900
C326        C  0.51127652  0.22791793  0.73097119    -0.00900
H327        H  0.50684392  0.30068335  0.73617247     0.12900
H328        H  0.51623244  0.26037119  0.69381661     0.12900
O329        O  0.99961428  0.41040073  0.04367419    -0.86400
O330        O  0.99228515  0.58102919  0.04334965    -0.86600
O331        O  0.04944653  0.49442446  0.07844192    -0.88200
O332        O  0.95206922  0.49675096  0.07914089    -0.87000
O333        O  0.91587782  0.49437618  0.04262035    -0.86600
O334        O  0.08579602  0.49759522  0.04223255    -0.88000
O335        O  0.99787292  0.54459485  0.07931628    -0.86400
O336        O  0.00117832  0.44775236  0.07923646    -0.86000
Zr337      Zr  0.00046339  0.49623243  0.05413447     2.84300
O338        O  0.96937264  0.52563772  0.02387597    -1.08000
O339        O  0.03088724  0.46639164  0.02391152    -1.08700
C340        C  0.00035581  0.41994910  0.07111956     1.06700
C341        C  0.99353305  0.57196154  0.07095881     1.06600
C342        C  0.07702990  0.49537956  0.06977230     1.09600
C343        C  0.92462767  0.49565550  0.07023117     1.07400
H344        H  0.04185375  0.54042307  0.03686292     0.33000
O345        O  0.02973224  0.52772923  0.02412465    -1.29000
H346        H  0.95826707  0.45258412  0.03704623     0.32600
O347        O  0.97062043  0.46498715  0.02429896    -1.30600
O348        O  0.99659244  0.58073703  0.94405308    -0.86400
O349        O  0.00041537  0.41025597  0.94485608    -0.87900
O350        O  0.08385387  0.54657573  0.99248096    -0.86500
O351        O  0.91301106  0.54125638  0.99402849    -0.86500
O352        O  0.91561837  0.44631333  0.99571562    -0.86200
O353        O  0.08605780  0.44977802  0.99530687    -0.86000
O354        O  0.05008719  0.49255339  0.90832053    -0.86400
O355        O  0.95286468  0.49365359  0.90787289    -0.85900
O356        O  0.08582927  0.49585234  0.94505479    -0.86900
O357        O  0.91613998  0.49488470  0.94387887    -0.86100
O358        O  0.04732835  0.58270816  0.99577307    -0.86500
O359        O  0.05103832  0.41200830  0.99745365    -0.86200
O360        O  0.95206071  0.41007723  0.99457962    -0.85900
O361        O  0.94766261  0.57926966  0.99148219    -0.86300
O362        O  0.00089319  0.54358295  0.90845498    -0.86600
O363        O  0.00148695  0.44724146  0.90904025    -0.92100
Zr364      Zr  0.99834161  0.55726313  0.99376643     2.83100
Zr365      Zr  0.00113661  0.43468574  0.99429979     2.83500
Zr366      Zr  0.06033141  0.49757194  0.99370881     2.84100
Zr367      Zr  0.94020276  0.49445902  0.99348098     2.83400
Zr368      Zr  0.00116557  0.49536731  0.93355116     2.84200
O369        O  0.97083144  0.46436112  0.96334458    -1.08500
O370        O  0.02989186  0.52759703  0.96344211    -1.08000
C371        C  0.99808243  0.57119984  0.91662550     1.06700
C372        C  0.00087632  0.41962895  0.91734850     1.09300
C373        C  0.07498072  0.57401433  0.99436404     1.06800
C374        C  0.92043111  0.56912994  0.99242961     1.07200
C375        C  0.92450513  0.41888368  0.99564667     1.06800
C376        C  0.07829046  0.42196945  0.99718185     1.06300
C377        C  0.07761444  0.49337187  0.91732703     1.06800
C378        C  0.92520193  0.49441575  0.91627274     1.06300
H379        H  0.04405973  0.45297556  0.95186405     0.33000
O380        O  0.03126862  0.46548451  0.96406606    -1.29600
H381        H  0.95708794  0.53711312  0.95047508     0.33000
O382        O  0.96986727  0.52526175  0.96328283    -1.31000
N383        N  0.76523321  0.49603746  0.22640575    -0.03400
C384        C  0.73585447  0.48928469  0.22218795    -0.00800
C385        C  0.72005578  0.49260164  0.24860601    -0.23700
C386        C  0.74011790  0.50154362  0.26992308    -0.23900
C387        C  0.76764982  0.50332694  0.25596024    -0.00900
H388        H  0.69630496  0.48924789  0.25190651     0.12900
H389        H  0.73533971  0.50520757  0.29344467     0.12900
N390        N  0.23243961  0.47723919  0.22981120    -0.03400
C391        C  0.26286204  0.47878411  0.22707263    -0.00800
C392        C  0.27643566  0.47076171  0.25375937    -0.23700
C393        C  0.25419925  0.46438571  0.27370257    -0.23900
C394        C  0.22749491  0.46869921  0.25882014    -0.00900
H395        H  0.30019060  0.46965339  0.25826746     0.12900
H396        H  0.25720165  0.45820697  0.29697940     0.12900
N397        N  0.23574772  0.49731461  0.75804875    -0.03400
C398        C  0.23182948  0.49591577  0.72756230    -0.00800
C399        C  0.25849660  0.50205200  0.71300688    -0.23700
C400        C  0.27954994  0.50706036  0.73450689    -0.23900
C401        C  0.26543328  0.50393290  0.76182404    -0.00900
H402        H  0.26225348  0.50294086  0.68903373     0.12900
H403        H  0.30296037  0.51192355  0.73064382     0.12900
N404        N  0.76546671  0.49574707  0.75928800    -0.03400
C405        C  0.73550922  0.49978051  0.76407461    -0.00800
C406        C  0.71982474  0.49644269  0.73754861    -0.23700
C407        C  0.74014092  0.49028774  0.71570932    -0.23900
C408        C  0.76792610  0.48987307  0.72923463    -0.00900
H409        H  0.69587217  0.49799522  0.73443420     0.12900
H410        H  0.73515752  0.48704641  0.69216439     0.12900
N411        N  0.26397781  0.26012965  0.99304492    -0.03400
C412        C  0.26745981  0.23032992  0.98682431    -0.00800
C413        C  0.24020000  0.21578866  0.98647127    -0.23700
C414        C  0.21905953  0.23678989  0.99297363    -0.23900
C415        C  0.23385048  0.26377759  0.99705510    -0.00900
H416        H  0.23622710  0.19210098  0.98285043     0.12900
H417        H  0.19521557  0.23280455  0.99437840     0.12900
O418        O  0.49949314  0.44614172  0.07926082    -0.86400
O419        O  0.49948135  0.44881023  0.90908238    -0.86600
O420        O  0.45111533  0.41041950  0.99253174    -0.88200
O421        O  0.54860658  0.41137025  0.99522523    -0.87000
O422        O  0.58456751  0.44812745  0.99448276    -0.86600
O423        O  0.41454268  0.44634529  0.99535228    -0.88000
O424        O  0.50260332  0.41267009  0.94569931    -0.86400
O425        O  0.50193270  0.41046108  0.04201421    -0.86000
Zr426      Zr  0.49983624  0.43627596  0.99435263     2.84300
O427        O  0.52984314  0.46710417  0.96430247    -1.08000
O428        O  0.46956265  0.46540770  0.02581667    -1.08700
C429        C  0.50109504  0.41883336  0.06967195     1.06700
C430        C  0.50131759  0.42125326  0.91817182     1.06600
C431        C  0.42339704  0.41877238  0.99370540     1.09600
C432        C  0.57612667  0.42035022  0.99492516     1.07400
H433        H  0.45733272  0.45432247  0.95151109     0.33000
O434        O  0.46969735  0.46676593  0.96425049    -1.29000
H435        H  0.54213114  0.45354517  0.03740543     0.32600
O436        O  0.52947984  0.46633253  0.02541679    -1.30600
O437        O  0.50236751  0.54841246  0.91186782    -0.86400
O438        O  0.50231025  0.54521578  0.08179225    -0.87900
O439        O  0.41436905  0.49609863  0.94716405    -0.86500
O440        O  0.58587002  0.49533756  0.94837578    -0.86500
O441        O  0.58433037  0.49547637  0.04341843    -0.86200
O442        O  0.41436373  0.49242527  0.04414293    -0.86000
O443        O  0.44950969  0.58076359  0.99675219    -0.86400
O444        O  0.54713057  0.58227979  0.99970923    -0.85900
O445        O  0.41342152  0.54412679  0.99828973    -0.86900
O446        O  0.58371072  0.54638739  0.99623320    -0.86100
O447        O  0.45028993  0.50035261  0.91040052    -0.86500
O448        O  0.44991595  0.49490742  0.08126661    -0.86200
O449        O  0.54904919  0.49208796  0.08077762    -0.85900
O450        O  0.55036749  0.49763904  0.91122041    -0.86300
O451        O  0.49919202  0.58336159  0.94970667    -0.86600
O452        O  0.49806380  0.58143147  0.04544405    -0.87900
Zr453      Zr  0.49991616  0.49799245  0.93424956     2.83100
Zr454      Zr  0.49946423  0.49586412  0.05690512     2.83500
Zr455      Zr  0.43911596  0.49559723  0.99573958     2.84100
Zr456      Zr  0.55945892  0.49700066  0.99553791     2.83400
Zr457      Zr  0.49864946  0.55675821  0.99701633     2.84200
O458        O  0.52948727  0.52668507  0.02683165    -1.08500
O459        O  0.46899591  0.52680887  0.96571496    -1.08000
C460        C  0.50147855  0.57572164  0.92190645     1.06700
C461        C  0.50074078  0.57286374  0.07290193     1.09300
C462        C  0.42281799  0.49854925  0.91958683     1.06800
C463        C  0.57783972  0.49628846  0.92067973     1.07200
C464        C  0.57636899  0.49289367  0.07103305     1.06800
C465        C  0.42247406  0.49308586  0.07191898     1.06300
C466        C  0.42198515  0.57187701  0.99794739     1.06800
C467        C  0.57477958  0.57391339  0.99836695     1.06300
H468        H  0.45603003  0.53813510  0.03975540     0.33000
O469        O  0.46862589  0.52596141  0.02701841    -1.29600
H470        H  0.54224228  0.54077493  0.95389268     0.33000
O471        O  0.52952060  0.52788894  0.96577166    -1.31000
N472        N  0.73446922  0.73177536  0.00187751    -0.03400
C473        C  0.76437662  0.72642846  0.99786933    -0.00800
C474        C  0.78074120  0.75242129  0.00166992    -0.23700
C475        C  0.76097161  0.77462525  0.00804490    -0.23900
C476        C  0.73275234  0.76187193  0.00812012    -0.00900
H477        H  0.80475034  0.75498144  0.99985610     0.12900
H478        H  0.76662601  0.79802885  0.01121540     0.12900
N479        N  0.26548156  0.73215154  0.00347883    -0.03400
C480        C  0.26864665  0.76236822  0.99900101    -0.00800
C481        C  0.24108934  0.77624041  0.99784822    -0.23700
C482        C  0.22009786  0.75448378  0.00178730    -0.23900
C483        C  0.23523311  0.72775281  0.00521113    -0.00900
H484        H  0.23673170  0.79989993  0.99469122     0.12900
H485        H  0.19611171  0.75770316  0.00171083     0.12900
N486        N  0.73503961  0.26227223  0.99569852    -0.03400
C487        C  0.76474637  0.26443182  0.98872040    -0.00800
C488        C  0.77763084  0.23630601  0.98687673    -0.23700
C489        C  0.75582565  0.21604270  0.99305715    -0.23900
C490        C  0.73010785  0.23215148  0.99864563    -0.00900
H491        H  0.80081912  0.23101335  0.98240549     0.12900
H492        H  0.75840788  0.19190779  0.99339369     0.12900
C493        C  0.67444523  0.38212606  0.96079918    -0.17800
C494        C  0.69647703  0.35982260  0.96058364    -0.19900
C495        C  0.69352953  0.33419823  0.97864334     0.20700
C496        C  0.66812421  0.33108973  0.99712540    -0.02800
C497        C  0.64534707  0.35310939  0.99656021    -0.05900
C498        C  0.64869329  0.37891124  0.97854316     0.21000
C499        C  0.61921959  0.34923200  0.01391834     0.19200
C500        C  0.61645512  0.32374326  0.03219966    -0.17400
C501        C  0.63946132  0.30248143  0.03351667    -0.19600
C502        C  0.66536321  0.30590028  0.01601671     0.20700
C503        C  0.68834628  0.28441071  0.01683288    -0.32600
C504        C  0.71306705  0.28629590  0.99724199     0.01400
C505        C  0.71526603  0.31143118  0.97814627    -0.24000
C506        C  0.62620809  0.40094571  0.97848449    -0.28500
C507        C  0.59985657  0.39704798  0.99532615     0.07000
C508        C  0.59642257  0.37093902  0.01276270    -0.27200
H509        H  0.67738665  0.40174838  0.94678652     0.11700
H510        H  0.71591653  0.36268724  0.94635987     0.12900
H511        H  0.59657859  0.32036341  0.04568695     0.12000
H512        H  0.63681204  0.28312728  0.04794996     0.11200
H513        H  0.68664614  0.26593854  0.03244000     0.16600
H514        H  0.73364279  0.31312310  0.96245397     0.12500
H515        H  0.62891307  0.42088155  0.96484539     0.15400
H516        H  0.57629596  0.36788982  0.02598134     0.15100
C517        C  0.30450448  0.63466909  0.03877934    -0.17800
C518        C  0.32578493  0.61165121  0.03703337    -0.19900
C519        C  0.35127167  0.61480248  0.01886363     0.20700
C520        C  0.35542502  0.64160340  0.00254811    -0.02800
C521        C  0.33358938  0.66453946  0.00378140    -0.05900
C522        C  0.30800078  0.66108903  0.02197318     0.21000
C523        C  0.33717708  0.69070655  0.98642109     0.19200
C524        C  0.36302146  0.69427243  0.96889698    -0.17400
C525        C  0.38495752  0.67194232  0.96824223    -0.19600
C526        C  0.38124495  0.64540538  0.98472575     0.20700
C527        C  0.40282590  0.62258552  0.98353327    -0.32600
C528        C  0.39865513  0.59553690  0.99922066     0.01400
C529        C  0.37267193  0.59172747  0.01671065    -0.24000
C530        C  0.28621224  0.68389053  0.02267916    -0.28500
C531        C  0.28892672  0.70959157  0.00439609     0.07000
C532        C  0.31464221  0.71260269  0.98634657    -0.27200
H533        H  0.28504100  0.63158917  0.05292447     0.11700
H534        H  0.32228634  0.59135076  0.04990297     0.12900
H535        H  0.36624266  0.71434090  0.95559931     0.12000
H536        H  0.40466859  0.67526431  0.95449428     0.11200
H537        H  0.42271485  0.62565990  0.96995238     0.16600
H538        H  0.36947609  0.57109914  0.02916084     0.12500
H539        H  0.26704560  0.68145952  0.03729556     0.15400
H540        H  0.31689041  0.73165453  0.97153295     0.15100
C541        C  0.69179307  0.63860814  0.96040988    -0.17800
C542        C  0.67015818  0.61587626  0.96083605    -0.19900
C543        C  0.64535881  0.61786463  0.98002777     0.20700
C544        C  0.64237082  0.64304531  0.99902294    -0.02800
C545        C  0.66472316  0.66560853  0.99920732    -0.05900
C546        C  0.68939025  0.66346613  0.97962249     0.21000
C547        C  0.66246880  0.69017580  0.01905745     0.19200
C548        C  0.63735748  0.69241963  0.03788146    -0.17400
C549        C  0.61479025  0.67052753  0.03709451    -0.19600
C550        C  0.61715148  0.64562764  0.01789346     0.20700
C551        C  0.59488736  0.62321965  0.01729566    -0.32600
C552        C  0.59805805  0.59772901  0.99884926     0.01400
C553        C  0.62350140  0.59516531  0.98047203    -0.24000
C554        C  0.71138165  0.68602549  0.97971981    -0.28500
C555        C  0.71023131  0.70999478  0.00034318     0.07000
C556        C  0.68550662  0.71180245  0.01996672    -0.27200
H557        H  0.71064994  0.63654512  0.94529185     0.11700
H558        H  0.67275977  0.59677691  0.94601759     0.12900
H559        H  0.63511537  0.71118259  0.05317893     0.12000
H560        H  0.59562146  0.67291543  0.05176539     0.11200
H561        H  0.57539836  0.62527150  0.03161782     0.16600
H562        H  0.62593011  0.57576171  0.96598968     0.12500
H563        H  0.72956808  0.68473627  0.96377408     0.15400
H564        H  0.68435685  0.72982158  0.03622096     0.15100
C565        C  0.38094822  0.32348465  0.95374014    -0.17800
C566        C  0.35836700  0.30161435  0.95340548    -0.19900
C567        C  0.33413164  0.30335852  0.97338608     0.20700
C568        C  0.33264705  0.32743117  0.99387038    -0.02800
C569        C  0.35508794  0.34995439  0.99370572    -0.05900
C570        C  0.37951794  0.34783674  0.97372687     0.21000
C571        C  0.35302567  0.37459023  0.01350050     0.19200
C572        C  0.32899971  0.37608442  0.03375022    -0.17400
C573        C  0.30723053  0.35342754  0.03441217    -0.19600
C574        C  0.30870474  0.32908428  0.01445326     0.20700
C575        C  0.28661650  0.30650279  0.01463597    -0.32600
C576        C  0.28736652  0.28281082  0.99369748     0.01400
C577        C  0.31129388  0.28159714  0.97308547    -0.24000
C578        C  0.40200041  0.37009108  0.97408780    -0.28500
C579        C  0.39986853  0.39501194  0.99346039     0.07000
C580        C  0.37506359  0.39719735  0.01282571    -0.27200
H581        H  0.39945207  0.32145389  0.93818547     0.11700
H582        H  0.35994093  0.28322357  0.93757441     0.12900
H583        H  0.32712015  0.39474062  0.04923132     0.12000
H584        H  0.28903667  0.35511775  0.05037077     0.11200
H585        H  0.26877978  0.30743004  0.03102894     0.16600
H586        H  0.31198038  0.26385356  0.95650010     0.12500
H587        H  0.42086966  0.36835235  0.95891748     0.15400
H588        H  0.37331711  0.41620598  0.02791507     0.15100
C589        C  0.62248939  0.53896587  0.82937761    -0.17800
C590        C  0.64624275  0.54169505  0.80925300    -0.19900
C591        C  0.67213551  0.52435668  0.81284473     0.20700
C592        C  0.67458156  0.50459508  0.83732684    -0.02800
C593        C  0.65073927  0.50225113  0.85803959    -0.05900
C594        C  0.62438467  0.51915320  0.85365736     0.21000
C595        C  0.65301699  0.48268404  0.88274285     0.19200
C596        C  0.67919319  0.46562331  0.88644467    -0.17400
C597        C  0.70248903  0.46729552  0.86536404    -0.19600
C598        C  0.70032399  0.48648424  0.84048255     0.20700
C599        C  0.72246694  0.48675025  0.81784055    -0.32600
C600        C  0.71918206  0.50541037  0.79259528     0.01400
C601        C  0.69481332  0.52527791  0.79133649    -0.24000
C602        C  0.60031930  0.51603812  0.87355667    -0.28500
C603        C  0.60241242  0.49695438  0.89840243     0.07000
C604        C  0.62899160  0.48051783  0.90309400    -0.27200
H605        H  0.60252128  0.55222097  0.82582339     0.11700
H606        H  0.64404665  0.55685129  0.79040862     0.12900
H607        H  0.68140789  0.45052914  0.90533789     0.12000
H608        H  0.72204040  0.45329988  0.86833227     0.11200
H609        H  0.74093483  0.47108495  0.81881663     0.16600
H610        H  0.69222267  0.53978664  0.77199928     0.12500
H611        H  0.58022685  0.52920310  0.87024003     0.15400
H612        H  0.63081005  0.46587369  0.92240250     0.15100
C613        C  0.33188656  0.45508494  0.87347039    -0.17800
C614        C  0.30880172  0.45633254  0.85222099    -0.19900
C615        C  0.30636404  0.48089576  0.83269488     0.20700
C616        C  0.32740533  0.50452256  0.83483849    -0.02800
C617        C  0.35105288  0.50297395  0.85583931    -0.05900
C618        C  0.35324207  0.47816928  0.87531768     0.21000
C619        C  0.37272802  0.52606991  0.85703683     0.19200
C620        C  0.37007213  0.55086396  0.83791056    -0.17400
C621        C  0.34652054  0.55254306  0.81736393    -0.19600
C622        C  0.32533913  0.52935226  0.81542813     0.20700
C623        C  0.30293601  0.52999521  0.79351098    -0.32600
C624        C  0.28281780  0.50594004  0.79013652     0.01400
C625        C  0.28410931  0.48174268  0.81028470    -0.24000
C626        C  0.37682990  0.47687669  0.89613968    -0.28500
C627        C  0.39877457  0.49953203  0.89695341     0.07000
C628        C  0.39668875  0.52396135  0.87728153    -0.27200
H629        H  0.33326352  0.43584439  0.88821818     0.11700
H630        H  0.29297334  0.43795350  0.85091334     0.12900
H631        H  0.38635200  0.56887663  0.83868532     0.12000
H632        H  0.34518746  0.57175715  0.80257589     0.11200
H633        H  0.30212405  0.54854851  0.77782484     0.16600
H634        H  0.26903410  0.46289795  0.80737324     0.12500
H635        H  0.37840272  0.45809187  0.91147960     0.15400
H636        H  0.41333717  0.54165149  0.87829181     0.15100
C637        C  0.35567393  0.52319088  0.19020874    -0.17800
C638        C  0.37931839  0.52324348  0.16968280    -0.19900
C639        C  0.37684950  0.50765779  0.14243907     0.20700
C640        C  0.34998510  0.49234536  0.13558871    -0.02800
C641        C  0.32621381  0.49197267  0.15650931    -0.05900
C642        C  0.32926352  0.50729700  0.18398191     0.21000
C643        C  0.29987096  0.47544739  0.15039013     0.19200
C644        C  0.29710532  0.46058173  0.12275027    -0.17400
C645        C  0.32042017  0.46145875  0.10174375    -0.19600
C646        C  0.34708756  0.47693366  0.10812020     0.20700
C647        C  0.37096165  0.47713031  0.08761920    -0.32600
C648        C  0.39799217  0.49203865  0.09441585     0.01400
C649        C  0.40077792  0.50709183  0.12199451    -0.24000
C650        C  0.30651219  0.50525695  0.20541871    -0.28500
C651        C  0.28117446  0.48709719  0.20052787     0.07000
C652        C  0.27754994  0.47285959  0.17259519    -0.27200
H653        H  0.35831385  0.53504013  0.21128382     0.11700
H654        H  0.39965093  0.53527837  0.17523891     0.12900
H655        H  0.27706698  0.44791511  0.11753684     0.12000
H656        H  0.31778692  0.44958370  0.08068425     0.11200
H657        H  0.36861793  0.46539642  0.06642776     0.16600
H658        H  0.42131630  0.51894727  0.12723034     0.12500
H659        H  0.30941737  0.51629178  0.22692562     0.15400
H660        H  0.25841756  0.45838464  0.16884497     0.15100
C661        C  0.65190329  0.43943347  0.17423415    -0.17800
C662        C  0.62747782  0.44173553  0.15479635    -0.19900
C663        C  0.62668919  0.46429977  0.13291581     0.20700
C664        C  0.65141539  0.48387076  0.12972697    -0.02800
C665        C  0.67597754  0.48164753  0.14942052    -0.05900
C666        C  0.67583377  0.45973982  0.17216534     0.21000
C667        C  0.69983380  0.50243038  0.14744235     0.19200
C668        C  0.69970202  0.52407496  0.12464791    -0.17400
C669        C  0.67561324  0.52591970  0.10475235    -0.19600
C670        C  0.65114247  0.50637369  0.10756371     0.20700
C671        C  0.62618817  0.50927671  0.08890859    -0.32600
C672        C  0.60116781  0.49051497  0.09252577     0.01400
C673        C  0.60152060  0.46793842  0.11442684    -0.24000
C674        C  0.69842947  0.45999368  0.19382618    -0.28500
C675        C  0.72050002  0.48246698  0.19369735     0.07000
C676        C  0.72212957  0.50262452  0.16962221    -0.27200
H677        H  0.65159616  0.42242063  0.19156454     0.11700
H678        H  0.60890973  0.42629897  0.15732144     0.12900
H679        H  0.71783848  0.54010166  0.12271314     0.12000
H680        H  0.67574401  0.54318208  0.08766940     0.11200
H681        H  0.62602333  0.52642010  0.07166864     0.16600
H682        H  0.58255100  0.45290857  0.11658427     0.12500
H683        H  0.69731250  0.44442298  0.21246765     0.15400
H684        H  0.73895865  0.52015713  0.16970297     0.15100
C685        C  0.84978351  0.68019313  0.94895763    -0.17800
C686        C  0.87334538  0.65967910  0.94992297    -0.19900
C687        C  0.87245564  0.63538499  0.96983249     0.20700
C688        C  0.84717326  0.63131669  0.98845738    -0.02800
C689        C  0.82361236  0.65241156  0.98791844    -0.05900
C690        C  0.82513125  0.67699968  0.96818767     0.21000
C691        C  0.79920899  0.64959647  0.00793012     0.19200
C692        C  0.79792481  0.62469692  0.02714405    -0.17400
C693        C  0.82085212  0.60326844  0.02703817    -0.19600
C694        C  0.84581379  0.60666143  0.00816779     0.20700
C695        C  0.86970480  0.58622086  0.00903053    -0.32600
C696        C  0.89543522  0.59080315  0.99131997     0.01400
C697        C  0.89657189  0.61535614  0.97169817    -0.24000
C698        C  0.80292118  0.69898918  0.96922962    -0.28500
C699        C  0.77998758  0.69787892  0.99082607     0.07000
C700        C  0.77757473  0.67257143  0.00948343    -0.27200
H701        H  0.85125115  0.69907378  0.93375033     0.11700
H702        H  0.89244364  0.66302656  0.93534090     0.12900
H703        H  0.77940197  0.62201735  0.04258069     0.12000
H704        H  0.81941263  0.58441137  0.04227406     0.11200
H705        H  0.86866135  0.56714498  0.02405694     0.16600
H706        H  0.91604697  0.61857082  0.95755981     0.12500
H707        H  0.80485354  0.71848405  0.95482271     0.15400
H708        H  0.76022947  0.67176995  0.02644705     0.15100
C709        C  0.80300979  0.36091120  0.02906911    -0.17800
C710        C  0.82636845  0.38184479  0.03087843    -0.19900
C711        C  0.85173882  0.37897322  0.01249707     0.20700
C712        C  0.85340939  0.35506911  0.99182490    -0.02800
C713        C  0.82944406  0.33468019  0.98926585    -0.05900
C714        C  0.80432806  0.33718910  0.00836334     0.21000
C715        C  0.83090401  0.31145138  0.96789118     0.19200
C716        C  0.85625437  0.30838079  0.94963492    -0.17400
C717        C  0.88030433  0.32807445  0.95271176    -0.19600
C718        C  0.87907463  0.35146298  0.97366439     0.20700
C719        C  0.90290168  0.37158278  0.97635208    -0.32600
C720        C  0.90095009  0.39596110  0.99602435     0.01400
C721        C  0.87539348  0.39963735  0.01411454    -0.24000
C722        C  0.78166894  0.31526186  0.00710868    -0.28500
C723        C  0.78353084  0.29168423  0.98620600     0.07000
C724        C  0.80752360  0.29088558  0.96585326    -0.27200
H725        H  0.78393015  0.36326692  0.04386056     0.11700
H726        H  0.82474663  0.40008331  0.04688298     0.12900
H727        H  0.85768606  0.29042108  0.93330171     0.12000
H728        H  0.89979601  0.32512880  0.93857022     0.11200
H729        H  0.92244443  0.36908622  0.96215345     0.16600
H730        H  0.87399302  0.41855974  0.02935641     0.12500
H731        H  0.76355862  0.31570627  0.02324818     0.15400
H732        H  0.80894667  0.27289063  0.94952380     0.15100
C733        C  0.19603847  0.63364493  0.96172901    -0.17800
C734        C  0.17219658  0.61334628  0.95911605    -0.19900
C735        C  0.14785057  0.61469727  0.97899079     0.20700
C736        C  0.14773300  0.63639140  0.00203147    -0.02800
C737        C  0.17211465  0.65639313  0.00509411    -0.05900
C738        C  0.19622021  0.65537162  0.98456213     0.21000
C739        C  0.17189049  0.67802011  0.02815927     0.19200
C740        C  0.14762844  0.67936842  0.04808879    -0.17400
C741        C  0.12340067  0.65976351  0.04489706    -0.19600
C742        C  0.12309271  0.63835891  0.02181924     0.20700
C743        C  0.09865955  0.61882403  0.01827570    -0.32600
C744        C  0.09891260  0.59682523  0.99573432     0.01400
C745        C  0.12363853  0.59475524  0.97628933    -0.24000
C746        C  0.21920166  0.67702003  0.98637752    -0.28500
C747        C  0.21823063  0.69941966  0.00857402     0.07000
C748        C  0.19514637  0.69896433  0.02999624    -0.27200
H749        H  0.21422696  0.63250471  0.94571724     0.11700
H750        H  0.17261568  0.59681785  0.94127802     0.12900
H751        H  0.14713813  0.69597945  0.06584539     0.12000
H752        H  0.10480203  0.66147526  0.06037984     0.11200
H753        H  0.07991872  0.62000764  0.03366996     0.16600
H754        H  0.12393820  0.57759979  0.95902081     0.12500
H755        H  0.23654254  0.67774830  0.96940054     0.15400
H756        H  0.19413829  0.71653895  0.04681849     0.15100
C757        C  0.14453076  0.30860790  0.04145115    -0.17800
C758        C  0.12145191  0.32965684  0.03997710    -0.19900
C759        C  0.12388402  0.35458826  0.02099414     0.20700
C760        C  0.15030785  0.35890900  0.00412336    -0.02800
C761        C  0.17347545  0.33745458  0.00533858    -0.05900
C762        C  0.17031343  0.31204009  0.02379168     0.21000
C763        C  0.19919379  0.34079831  0.98717224     0.19200
C764        C  0.20213030  0.36645200  0.96919724    -0.17400
C765        C  0.17944249  0.38805662  0.96846796    -0.19600
C766        C  0.15322316  0.38418566  0.98537858     0.20700
C767        C  0.12964177  0.40481074  0.98345504    -0.32600
C768        C  0.10287316  0.40005027  0.99938947     0.01400
C769        C  0.10020334  0.37499966  0.01823915    -0.24000
C770        C  0.19222764  0.28970133  0.02310432    -0.28500
C771        C  0.21680358  0.29165826  0.00340951     0.07000
C772        C  0.22064817  0.31771558  0.98611796    -0.27200
H773        H  0.14185351  0.28919514  0.05580125     0.11700
H774        H  0.10149141  0.32617406  0.05331803     0.12900
H775        H  0.22174739  0.36955019  0.95527414     0.12000
H776        H  0.18209889  0.40745869  0.95410153     0.11200
H777        H  0.13180716  0.42423200  0.96899562     0.16600
H778        H  0.07983736  0.37163285  0.03101718     0.12500
H779        H  0.18915438  0.26966717  0.03653411     0.15400
H780        H  0.23915154  0.31917508  0.97049237     0.15100
C781        C  0.81032919  0.53796192  0.85128152    -0.17800
C782        C  0.83215856  0.53700989  0.87381764    -0.19900
C783        C  0.85609483  0.51674865  0.87192494     0.20700
C784        C  0.85836557  0.49770424  0.84671726    -0.02800
C785        C  0.83581087  0.49802544  0.82443767    -0.05900
C786        C  0.81163644  0.51819737  0.82676199     0.21000
C787        C  0.83719024  0.47777847  0.80016065     0.19200
C788        C  0.86188340  0.45855945  0.79744861    -0.17400
C789        C  0.88469535  0.45890878  0.81897766    -0.19600
C790        C  0.88290540  0.47800033  0.84398873     0.20700
C791        C  0.90494976  0.47743630  0.86650768    -0.32600
C792        C  0.90216645  0.49543436  0.89232325     0.01400
C793        C  0.87767253  0.51505765  0.89483304    -0.24000
C794        C  0.78902717  0.51795677  0.80478891    -0.28500
C795        C  0.78943762  0.49684669  0.78122650     0.07000
C796        C  0.81367210  0.47676447  0.77928943    -0.27200
H797        H  0.79205210  0.55373990  0.85337157     0.11700
H798        H  0.83025042  0.55206944  0.89281361     0.12900
H799        H  0.86350230  0.44314812  0.77870778     0.12000
H800        H  0.90344810  0.44377797  0.81638222     0.11200
H801        H  0.92385892  0.46239642  0.86438571     0.16600
H802        H  0.87574012  0.52939557  0.91440174     0.12500
H803        H  0.77096784  0.53402961  0.80618677     0.15400
H804        H  0.81411439  0.46006878  0.76164883     0.15100
C805        C  0.19626243  0.53043818  0.85556340    -0.17800
C806        C  0.17462725  0.52925617  0.87820359    -0.19900
C807        C  0.14996425  0.50992119  0.87564738     0.20700
C808        C  0.14756638  0.49088942  0.85041813    -0.02800
C809        C  0.16986655  0.49160735  0.82780816    -0.05900
C810        C  0.19392911  0.51194281  0.83016021     0.21000
C811        C  0.16778442  0.47246011  0.80263686     0.19200
C812        C  0.14349400  0.45250675  0.80055534    -0.17400
C813        C  0.12107030  0.45221988  0.82264092    -0.19600
C814        C  0.12264964  0.47161193  0.84750929     0.20700
C815        C  0.09965936  0.47247431  0.86926399    -0.32600
C816        C  0.10178314  0.49176439  0.89432921     0.01400
C817        C  0.12740790  0.50981678  0.89759678    -0.24000
C818        C  0.21502362  0.51384080  0.80692082    -0.28500
C819        C  0.21340711  0.49488164  0.78163644     0.07000
C820        C  0.18981518  0.47387079  0.77994845    -0.27200
H821        H  0.21477641  0.54598242  0.85785521     0.11700
H822        H  0.17688874  0.54392709  0.89747342     0.12900
H823        H  0.14154001  0.43747052  0.78154122     0.12000
H824        H  0.10233567  0.43697951  0.82012490     0.11200
H825        H  0.08026032  0.45805978  0.86683455     0.16600
H826        H  0.12929281  0.52462861  0.91682280     0.12500
H827        H  0.23249660  0.53060471  0.80832955     0.15400
H828        H  0.18852272  0.45874909  0.76097015     0.15100
C829        C  0.19502970  0.52550206  0.13736926    -0.17800
C830        C  0.17377972  0.52722103  0.11430122    -0.19900
C831        C  0.14810248  0.50902995  0.11481686     0.20700
C832        C  0.14390656  0.48884449  0.13881695    -0.02800
C833        C  0.16576072  0.48651885  0.16161824    -0.05900
C834        C  0.19133827  0.50510418  0.16107035     0.21000
C835        C  0.16209504  0.46539630  0.18481264     0.19200
C836        C  0.13621994  0.44757960  0.18573306    -0.17400
C837        C  0.11421809  0.45049769  0.16367179    -0.19600
C838        C  0.11793284  0.47085620  0.14000995     0.20700
C839        C  0.09614497  0.47348482  0.11753408    -0.32600
C840        C  0.10027197  0.49324640  0.09333841     0.01400
C841        C  0.12649442  0.51071093  0.09190522    -0.24000
C842        C  0.21279564  0.50278667  0.18409012    -0.28500
C843        C  0.20988324  0.48090233  0.20670361     0.07000
C844        C  0.18449199  0.46214153  0.20650524    -0.27200
H845        H  0.21455390  0.53989361  0.13647461     0.11700
H846        H  0.17735424  0.54292618  0.09612448     0.12900
H847        H  0.13295008  0.43143228  0.20358428     0.12000
H848        H  0.09440776  0.43663437  0.16495962     0.11200
H849        H  0.07614895  0.45974096  0.11855167     0.16600
H850        H  0.12970656  0.52606409  0.07334139     0.12500
H851        H  0.23180972  0.51783660  0.18424691     0.15400
H852        H  0.18222249  0.44465536  0.22316138     0.15100
C853        C  0.85371504  0.54259001  0.17991855    -0.17800
C854        C  0.87639593  0.54230583  0.15824884    -0.19900
C855        C  0.87805847  0.51896016  0.13715793     0.20700
C856        C  0.85661804  0.49567498  0.13789128    -0.02800
C857        C  0.83404403  0.49570753  0.16007549    -0.05900
C858        C  0.83251738  0.51933742  0.18112288     0.21000
C859        C  0.81299770  0.47210614  0.16114802     0.19200
C860        C  0.81457992  0.44882855  0.13998191    -0.17400
C861        C  0.83662403  0.44904093  0.11771261    -0.19600
C862        C  0.85768467  0.47236259  0.11643250     0.20700
C863        C  0.87977493  0.47279372  0.09408733    -0.32600
C864        C  0.90134775  0.49567896  0.09353290     0.01400
C865        C  0.90064734  0.51851221  0.11526460    -0.24000
C866        C  0.80979241  0.51929947  0.20291597    -0.28500
C867        C  0.78876594  0.49579284  0.20416738     0.07000
C868        C  0.79069982  0.47220304  0.18330253    -0.27200
H869        H  0.85284244  0.56094164  0.19584733     0.11700
H870        H  0.89256870  0.56043077  0.15790189     0.12900
H871        H  0.79861455  0.43053187  0.14052484     0.12000
H872        H  0.83723422  0.43091440  0.10150728     0.11200
H873        H  0.88056456  0.45507859  0.07741093     0.16600
H874        H  0.91730909  0.53621124  0.11467348     0.12500
H875        H  0.80821668  0.53767641  0.21875829     0.15400
H876        H  0.77483678  0.45385229  0.18443733     0.15100
C877        C  0.53846360  0.32309439  0.88367256    -0.17800
C878        C  0.53731922  0.29890139  0.86361492    -0.19900
C879        C  0.51623482  0.29844360  0.84028527     0.20700
C880        C  0.49545742  0.32220344  0.83785649    -0.02800
C881        C  0.49704836  0.34689841  0.85763139    -0.05900
C882        C  0.51880627  0.34741559  0.88049700     0.21000
C883        C  0.47732804  0.37139224  0.85402901     0.19200
C884        C  0.45539363  0.37036595  0.83159329    -0.17400
C885        C  0.45363819  0.34579949  0.81219331    -0.19600
C886        C  0.47394915  0.32200248  0.81476909     0.20700
C887        C  0.47440746  0.29909818  0.79337194    -0.32600
C888        C  0.49669801  0.27697312  0.79395308     0.01400
C889        C  0.51674442  0.27582423  0.81819027    -0.24000
C890        C  0.52054289  0.37229794  0.89968309    -0.28500
C891        C  0.50129270  0.39693386  0.89585017     0.07000
C892        C  0.47986770  0.39645647  0.87291395    -0.27200
H893        H  0.55516327  0.32308882  0.90128201     0.11700
H894        H  0.55332718  0.28085300  0.86597768     0.12900
H895        H  0.43987145  0.38877266  0.82875937     0.12000
H896        H  0.43695450  0.34583841  0.79457101     0.11200
H897        H  0.45900475  0.29992193  0.77459466     0.16600
H898        H  0.53414436  0.25893390  0.81847249     0.12500
H899        H  0.53688090  0.37257844  0.91766264     0.15400
H900        H  0.46454565  0.41511863  0.87048456     0.15100
C901        C  0.47125183  0.67593983  0.88565563    -0.17800
C902        C  0.47337733  0.69908563  0.86453377    -0.19900
C903        C  0.49428657  0.69749432  0.84109347     0.20700
C904        C  0.51372568  0.67258261  0.83939975    -0.02800
C905        C  0.51111708  0.64891320  0.86028033    -0.05900
C906        C  0.48967828  0.65055940  0.88343908     0.21000
C907        C  0.52934030  0.62320674  0.85740063     0.19200
C908        C  0.55086400  0.62196862  0.83455721    -0.17400
C909        C  0.55365898  0.64552912  0.81408554    -0.19600
C910        C  0.53481553  0.67060460  0.81598260     0.20700
C911        C  0.53537854  0.69272755  0.79373514    -0.32600
C912        C  0.51453963  0.71632334  0.79390162     0.01400
C913        C  0.49484051  0.71931066  0.81828692    -0.24000
C914        C  0.48671193  0.62655524  0.90359503    -0.28500
C915        C  0.50414748  0.60051782  0.90019406     0.07000
C916        C  0.52545875  0.59903046  0.87713630    -0.27200
H917        H  0.45468859  0.67756517  0.90332388     0.11700
H918        H  0.45827410  0.71798243  0.86621449     0.12900
H919        H  0.56520345  0.60254235  0.83221088     0.12000
H920        H  0.56997927  0.64372696  0.79621178     0.11200
H921        H  0.55044852  0.69028764  0.77482518     0.16600
H922        H  0.47831013  0.73704607  0.81821707     0.12500
H923        H  0.47041983  0.62781740  0.92157364     0.15400
H924        H  0.53937883  0.57925651  0.87493809     0.15100
C925        C  0.47420230  0.69652031  0.13102942    -0.17800
C926        C  0.47055385  0.67266623  0.11083845    -0.19900
C927        C  0.48902209  0.64726027  0.11253694     0.20700
C928        C  0.51194983  0.64626132  0.13421360    -0.02800
C929        C  0.51615817  0.67067682  0.15399733    -0.05900
C930        C  0.49672704  0.69563490  0.15293470     0.21000
C931        C  0.53915332  0.66958607  0.17555830     0.19200
C932        C  0.55802780  0.64453031  0.17691786    -0.17400
C933        C  0.55357146  0.62018367  0.15765702    -0.19600
C934        C  0.53040305  0.62065741  0.13647271     0.20700
C935        C  0.52550890  0.59605212  0.11741234    -0.32600
C936        C  0.50309330  0.59709433  0.09542462     0.01400
C937        C  0.48504054  0.62283973  0.09297406    -0.24000
C938        C  0.49911935  0.71828896  0.17486239    -0.28500
C939        C  0.52089814  0.71619824  0.19749212     0.07000
C940        C  0.54179937  0.69269901  0.19658512    -0.27200
H941        H  0.45914539  0.71548332  0.12976246     0.11700
H942        H  0.45291396  0.67385043  0.09422906     0.12900
H943        H  0.57577488  0.64342487  0.19342334     0.12000
H944        H  0.56811561  0.60086853  0.15949032     0.11200
H945        H  0.53986706  0.57653936  0.11888399     0.16600
H946        H  0.46787380  0.62377871  0.07582585     0.12500
H947        H  0.48267851  0.73609448  0.17569046     0.15400
H948        H  0.55868979  0.69111832  0.21397041     0.15100
C949        C  0.45622556  0.37515016  0.15912534    -0.17800
C950        C  0.45401888  0.35209601  0.18004845    -0.19900
C951        C  0.47355139  0.32759171  0.17867277     0.20700
C952        C  0.49551220  0.32606216  0.15603527    -0.02800
C953        C  0.49759869  0.34924285  0.13476128    -0.05900
C954        C  0.47788130  0.37389564  0.13649092     0.21000
C955        C  0.51939585  0.34785595  0.11189456     0.19200
C956        C  0.53926052  0.32351528  0.11091159    -0.17400
C957        C  0.53748537  0.30067703  0.13239668    -0.19600
C958        C  0.51566977  0.30170677  0.15503264     0.20700
C959        C  0.51427934  0.27953080  0.17737409    -0.32600
C960        C  0.49284398  0.28158524  0.20031880     0.01400
C961        C  0.47212238  0.30514129  0.20027851    -0.24000
C962        C  0.47996038  0.39684801  0.11545027    -0.28500
C963        C  0.50094444  0.39522188  0.09228660     0.07000
C964        C  0.52070308  0.37081014  0.09043838    -0.27200
H965        H  0.44098917  0.39396252  0.16063421     0.11700
H966        H  0.43722188  0.35357195  0.19750435     0.12900
H967        H  0.55623544  0.32220924  0.09361371     0.12000
H968        H  0.55322654  0.28226460  0.13137049     0.11200
H969        H  0.53071324  0.26170429  0.17784889     0.16600
H970        H  0.45578767  0.30678912  0.21820017     0.12500
H971        H  0.46465170  0.41566922  0.11654611     0.15400
H972        H  0.53707248  0.36986950  0.07251270     0.15100
C973        C  0.62853319  0.20087734  0.96957181    -0.17800
C974        C  0.60719187  0.17791953  0.96841841    -0.19900
C975        C  0.61081080  0.15184225  0.98563958     0.20700
C976        C  0.63555004  0.14929239  0.00507164    -0.02800
C977        C  0.65660378  0.17277863  0.00683702    -0.05900
C978        C  0.65356264  0.19833438  0.98833923     0.21000
C979        C  0.68143549  0.17003188  0.02606855     0.19200
C980        C  0.68479732  0.14426023  0.04376571    -0.17400
C981        C  0.66420031  0.12077430  0.04163916    -0.19600
C982        C  0.63975783  0.12290392  0.02206853     0.20700
C983        C  0.61966400  0.09897762  0.01890606    -0.32600
C984        C  0.59504032  0.10140489  0.99956563     0.01400
C985        C  0.59044002  0.12804087  0.98338382    -0.24000
C986        C  0.67652845  0.21985564  0.98756071    -0.28500
C987        C  0.70200354  0.21623581  0.00554054     0.07000
C988        C  0.70349095  0.19219670  0.02585262    -0.27200
H989        H  0.62575319  0.22036456  0.95536045     0.11700
H990        H  0.58823376  0.18023023  0.95347644     0.12900
H991        H  0.70385257  0.14188323  0.05858058     0.12000
H992        H  0.66761141  0.10078006  0.05498684     0.11200
H993        H  0.62287536  0.07864391  0.03182444     0.16600
H994        H  0.57134373  0.12993272  0.96852198     0.12500
H995        H  0.67559826  0.23807911  0.97152403     0.15400
H996        H  0.72325899  0.18942318  0.03967379     0.15100
C997        C  0.31800767  0.84872614  0.95374895    -0.17800
C998        C  0.33858231  0.87223534  0.95538510    -0.19900
C999        C  0.36046161  0.87255101  0.97787433     0.20700
C1000       C  0.36159553  0.84906372  0.99908209    -0.02800
C1001       C  0.34047585  0.82554884  0.99772375    -0.05900
C1002       C  0.31875538  0.82540273  0.97482841     0.21000
C1003       C  0.34074727  0.80252410  0.01950255     0.19200
C1004       C  0.36254468  0.80314264  0.04218152    -0.17400
C1005       C  0.38397254  0.82612547  0.04312247    -0.19600
C1006       C  0.38373810  0.84913791  0.02164535     0.20700
C1007       C  0.40524657  0.87215867  0.02215015    -0.32600
C1008       C  0.40407725  0.89544943  0.00097790     0.01400
C1009       C  0.38139390  0.89582019  0.97930929    -0.24000
C1010       C  0.29736020  0.80257851  0.97402636    -0.28500
C1011       C  0.29641559  0.78038379  0.99637551     0.07000
C1012       C  0.31854510  0.78003185  0.01877921    -0.27200
H1013       H  0.30125189  0.84897442  0.93619688     0.11700
H1014       H  0.33746428  0.89010822  0.93898176     0.12900
H1015       H  0.36301975  0.78584438  0.05921231     0.12000
H1016       H  0.40064980  0.82597933  0.06074947     0.11200
H1017       H  0.42266066  0.87218565  0.03907525     0.16600
H1018       H  0.38065167  0.91381603  0.96296782     0.12500
H1019       H  0.28018499  0.80299846  0.95685193     0.15400
H1020       H  0.31751505  0.76332913  0.03638938     0.15100
C1021       C  0.69160721  0.85655735  0.04508797    -0.17800
C1022       C  0.67197243  0.88073430  0.04183041    -0.19900
C1023       C  0.64769703  0.87883598  0.02196964     0.20700
C1024       C  0.64346813  0.85236564  0.00495927    -0.02800
C1025       C  0.66368652  0.82821143  0.00775259    -0.05900
C1026       C  0.68763686  0.83027466  0.02811837     0.21000
C1027       C  0.66023097  0.80225174  0.98978904     0.19200
C1028       C  0.63608955  0.80047392  0.96976818    -0.17400
C1029       C  0.61556376  0.82403244  0.96761931    -0.19600
C1030       C  0.61911081  0.85004277  0.98503744     0.20700
C1031       C  0.59861792  0.87367649  0.98296325    -0.32600
C1032       C  0.60250789  0.90001090  0.99989791     0.01400
C1033       C  0.62740289  0.90272376  0.01899570    -0.24000
C1034       C  0.70791643  0.80651466  0.03032002    -0.28500
C1035       C  0.70588908  0.78133489  0.01119420     0.07000
C1036       C  0.68159774  0.77911890  0.99130841    -0.27200
H1037       H  0.71018260  0.85858907  0.06056967     0.11700
H1038       H  0.67575763  0.90087814  0.05488232     0.12900
H1039       H  0.63307643  0.78084347  0.95573868     0.12000
H1040       H  0.59701296  0.82201010  0.95211143     0.11200
H1041       H  0.57956397  0.87165110  0.96804428     0.16600
H1042       H  0.63035061  0.92291567  0.03225312     0.12500
H1043       H  0.72655118  0.80845945  0.04576547     0.15400
H1044       H  0.68019745  0.76033928  0.97592670     0.15100
C1045       C  0.37793737  0.16524215  0.03767425    -0.17800
C1046       C  0.35759894  0.18896641  0.03496099    -0.19900
C1047       C  0.33790332  0.19031088  0.01046800     0.20700
C1048       C  0.33894311  0.16758190  0.98836056    -0.02800
C1049       C  0.35900052  0.14336096  0.99140364    -0.05900
C1050       C  0.37869504  0.14224176  0.01611926     0.21000
C1051       C  0.35915377  0.12014255  0.96979735     0.19200
C1052       C  0.33994512  0.12171073  0.94501467    -0.17400
C1053       C  0.32026029  0.14578235  0.94189007    -0.19600
C1054       C  0.31932476  0.16855874  0.96361968     0.20700
C1055       C  0.29804722  0.19143732  0.96180303    -0.32600
C1056       C  0.29561461  0.21308993  0.98460897     0.01400
C1057       C  0.31622289  0.21307329  0.00839655    -0.24000
C1058       C  0.39893466  0.11828882  0.01856844    -0.28500
C1059       C  0.39896428  0.09515518  0.99707592     0.07000
C1060       C  0.37876277  0.09593542  0.97310466    -0.27200
H1061       H  0.39289250  0.16473946  0.05679019     0.11700
H1062       H  0.35709790  0.20613878  0.05217083     0.12900
H1063       H  0.34003412  0.10422067  0.92811309     0.12000
H1064       H  0.30534498  0.14628905  0.92274789     0.11200
H1065       H  0.28194480  0.19130993  0.94360786     0.16600
H1066       H  0.31398437  0.22940033  0.02629185     0.12500
H1067       H  0.41475528  0.11765167  0.03699467     0.15400
H1068       H  0.37924991  0.07829120  0.95633390     0.15100
C1069       C  0.45797669  0.16407409  0.87216895    -0.17800
C1070       C  0.45869975  0.18617114  0.84992013    -0.19900
C1071       C  0.48080785  0.18566806  0.82757996     0.20700
C1072       C  0.50240091  0.16261842  0.82762410    -0.02800
C1073       C  0.50139149  0.14002520  0.84981939    -0.05900
C1074       C  0.47915370  0.14089260  0.87229039     0.21000
C1075       C  0.52259992  0.11660238  0.84951691     0.19200
C1076       C  0.54505239  0.11642712  0.82749547    -0.17400
C1077       C  0.54632173  0.13907318  0.80578381    -0.19600
C1078       C  0.52496026  0.16211154  0.80548733     0.20700
C1079       C  0.52575556  0.18465221  0.78350264    -0.32600
C1080       C  0.50414943  0.20754569  0.78315324     0.01400
C1081       C  0.48169635  0.20780374  0.80522970    -0.24000
C1082       C  0.47849465  0.11859891  0.89448910    -0.28500
C1083       C  0.49918529  0.09494416  0.89399685     0.07000
C1084       C  0.52103400  0.09390693  0.87132560    -0.27200
H1085       H  0.44074459  0.16504300  0.88922790     0.11700
H1086       H  0.44200452  0.20374307  0.85025263     0.12900
H1087       H  0.56167141  0.09878417  0.82708676     0.12000
H1088       H  0.56389887  0.13843906  0.78906760     0.11200
H1089       H  0.54336092  0.18464271  0.76680579     0.16600
H1090       H  0.46483248  0.22520159  0.80487491     0.12500
H1091       H  0.46163096  0.11936471  0.91195552     0.15400
H1092       H  0.53723339  0.07584543  0.87116048     0.15100
C1093       C  0.45027936  0.83797367  0.82006539    -0.17800
C1094       C  0.44997768  0.85967239  0.84281471    -0.19900
C1095       C  0.47604012  0.86625596  0.85913178     0.20700
C1096       C  0.50258639  0.85034877  0.85278308    -0.02800
C1097       C  0.50289192  0.82839888  0.82973592    -0.05900
C1098       C  0.47664074  0.82241403  0.81314686     0.21000
C1099       C  0.52941690  0.81251072  0.82327238     0.19200
C1100       C  0.55538944  0.81879590  0.83989030    -0.17400
C1101       C  0.55510161  0.84055231  0.86267158    -0.19600
C1102       C  0.52883229  0.85647949  0.86933647     0.20700
C1103       C  0.52834469  0.87853173  0.89206794    -0.32600
C1104       C  0.50210786  0.89489162  0.89803611     0.01400
C1105       C  0.47606069  0.88858992  0.88150771    -0.24000
C1106       C  0.47714866  0.80094281  0.79001909    -0.28500
C1107       C  0.50334280  0.78488246  0.78359160     0.07000
C1108       C  0.52939127  0.79062559  0.80040534    -0.27200
H1109       H  0.42987009  0.83346064  0.80775511     0.11700
H1110       H  0.42934165  0.87145768  0.84753439     0.12900
H1111       H  0.57597763  0.80689340  0.83524768     0.12000
H1112       H  0.57548459  0.84496252  0.87506531     0.11200
H1113       H  0.54846128  0.88338215  0.90476842     0.16600
H1114       H  0.45578872  0.90105044  0.88619466     0.12500
H1115       H  0.45702676  0.79616056  0.77732766     0.15400
H1116       H  0.54956097  0.77811073  0.79549769     0.15100
C1117       C  0.55134523  0.83429973  0.11905582    -0.17800
C1118       C  0.55241198  0.81183832  0.14091186    -0.19900
C1119       C  0.53032819  0.81013709  0.16321615     0.20700
C1120       C  0.50707442  0.83149573  0.16369317    -0.02800
C1121       C  0.50624688  0.85448933  0.14187648    -0.05900
C1122       C  0.52835682  0.85567084  0.11929810     0.21000
C1123       C  0.48328820  0.87619750  0.14259610     0.19200
C1124       C  0.46115940  0.87442034  0.16488604    -0.17400
C1125       C  0.46176463  0.85139384  0.18625695    -0.19600
C1126       C  0.48465143  0.82985871  0.18591242     0.20700
C1127       C  0.48554832  0.80674697  0.20735104    -0.32600
C1128       C  0.50885975  0.78554228  0.20721182     0.01400
C1129       C  0.53115757  0.78749422  0.18505641    -0.24000
C1130       C  0.52705575  0.87811967  0.09730324    -0.28500
C1131       C  0.50447572  0.89995379  0.09803986     0.07000
C1132       C  0.48281887  0.89911653  0.12090885    -0.27200
H1133       H  0.56855585  0.83498035  0.10195892     0.11700
H1134       H  0.57044360  0.79565872  0.14025663     0.12900
H1135       H  0.44329678  0.89078638  0.16572539     0.12000
H1136       H  0.44436724  0.85049785  0.20314893     0.11200
H1137       H  0.46811862  0.80518728  0.22415117     0.16600
H1138       H  0.54935771  0.77149553  0.18507569     0.12500
H1139       H  0.54382412  0.87887711  0.07973811     0.15400
H1140       H  0.46524757  0.91583503  0.12131975     0.15100
C1141       C  0.53528194  0.13797039  0.18914025    -0.17800
C1142       C  0.53529991  0.11591224  0.16685308    -0.19900
C1143       C  0.51838770  0.11969434  0.14065576     0.20700
C1144       C  0.50128695  0.14599293  0.13681110    -0.02800
C1145       C  0.50059959  0.16788086  0.15975036    -0.05900
C1146       C  0.51793315  0.16393272  0.18585075     0.21000
C1147       C  0.48248989  0.19355210  0.15667560     0.19200
C1148       C  0.46604116  0.19762065  0.13012794    -0.17400
C1149       C  0.46737022  0.17631928  0.10698855    -0.19600
C1150       C  0.48465989  0.15024852  0.11025024     0.20700
C1151       C  0.48520700  0.12807315  0.08777855    -0.32600
C1152       C  0.50131240  0.10128486  0.09209329     0.01400
C1153       C  0.51802201  0.09743247  0.11845624    -0.24000
C1154       C  0.51772800  0.18596730  0.20826610    -0.28500
C1155       C  0.49892014  0.21113512  0.20619226     0.07000
C1156       C  0.48106604  0.21452183  0.18027471    -0.27200
H1157       H  0.54858141  0.13454983  0.20915388     0.11700
H1158       H  0.54857967  0.09587680  0.17010329     0.12900
H1159       H  0.45219397  0.21731658  0.12722989     0.12000
H1160       H  0.45448266  0.17999945  0.08674492     0.11200
H1161       H  0.47230543  0.13116855  0.06742572     0.16600
H1162       H  0.53088090  0.07708369  0.12162051     0.12500
H1163       H  0.53249075  0.18348330  0.22729517     0.15400
H1164       H  0.46599293  0.23338214  0.17843886     0.15100
C1165       C  0.33624657  0.03943731  0.11680541    -0.17800
C1166       C  0.31592748  0.04333266  0.14016369    -0.19900
C1167       C  0.31796987  0.02579026  0.16613701     0.20700
C1168       C  0.34103580  0.00452193  0.16907232    -0.02800
C1169       C  0.36212847  0.00115822  0.14574028    -0.05900
C1170       C  0.35929968  0.01840526  0.11933713     0.21000
C1171       C  0.38577784  0.98046380  0.14864015     0.19200
C1172       C  0.38770838  0.96294161  0.17479501    -0.17400
C1173       C  0.36607937  0.96553306  0.19753426    -0.19600
C1174       C  0.34249948  0.98617580  0.19486509     0.20700
C1175       C  0.31958113  0.98796896  0.21663482    -0.32600
C1176       C  0.29593583  0.00851483  0.21298555     0.01400
C1177       C  0.29633311  0.02824413  0.18848080    -0.24000
C1178       C  0.37969173  0.01466585  0.09592655    -0.28500
C1179       C  0.40377013  0.99491348  0.09882941     0.07000
C1180       C  0.40694227  0.97789008  0.12531423    -0.27200
H1181       H  0.33394494  0.05292226  0.09673787     0.11700
H1182       H  0.29816206  0.05961906  0.13761727     0.12900
H1183       H  0.40568047  0.94690149  0.17746098     0.12000
H1184       H  0.36770986  0.95128143  0.21712780     0.11200
H1185       H  0.31923280  0.97240147  0.23527569     0.16600
H1186       H  0.27827302  0.04420441  0.18567428     0.12500
H1187       H  0.37754704  0.02811499  0.07578256     0.15400
H1188       H  0.42564466  0.96262694  0.12759308     0.15100
C1189       C  0.61468000  0.03354126  0.82141191    -0.17800
C1190       C  0.63464287  0.03060942  0.79730943    -0.19900
C1191       C  0.65429907  0.00610472  0.79577407     0.20700
C1192       C  0.65294954  0.98380479  0.81825168    -0.02800
C1193       C  0.63335388  0.98711425  0.84288591    -0.05900
C1194       C  0.61432460  0.01225396  0.84463080     0.21000
C1195       C  0.63345279  0.96564871  0.86619379     0.19200
C1196       C  0.65185769  0.94034821  0.86391017    -0.17400
C1197       C  0.67102553  0.93693424  0.83942018    -0.19600
C1198       C  0.67226614  0.95888699  0.81695294     0.20700
C1199       C  0.69396091  0.95734586  0.79443332    -0.32600
C1200       C  0.69734822  0.98073169  0.77366846     0.01400
C1201       C  0.67658007  0.00440569  0.77343807    -0.24000
C1202       C  0.59553041  0.01567243  0.86968878    -0.28500
C1203       C  0.59637308  0.99480804  0.89335323     0.07000
C1204       C  0.61528697  0.96988865  0.89145988    -0.27200
H1205       H  0.60004423  0.05285872  0.82227258     0.11700
H1206       H  0.63516475  0.04785784  0.78022320     0.12900
H1207       H  0.65184658  0.92346350  0.88136570     0.12000
H1208       H  0.68563014  0.91759328  0.83857001     0.11200
H1209       H  0.70999006  0.93912093  0.79455030     0.16600
H1210       H  0.67932523  0.02261413  0.75758153     0.12500
H1211       H  0.58036827  0.03458098  0.87094629     0.15400
H1212       H  0.61513782  0.95334795  0.90927850     0.15100
C1213       C  0.33445708  0.94595004  0.87835761    -0.17800
C1214       C  0.31500378  0.94047068  0.85446002    -0.19900
C1215       C  0.31740726  0.95701303  0.82779952     0.20700
C1216       C  0.33984216  0.97899031  0.82489882    -0.02800
C1217       C  0.36008302  0.98394651  0.84878156    -0.05900
C1218       C  0.35706672  0.96759225  0.87575982     0.21000
C1219       C  0.38321488  0.00525002  0.84571977     0.19200
C1220       C  0.38548876  0.02179620  0.81898489    -0.17400
C1221       C  0.36472042  0.01763012  0.79571744    -0.19600
C1222       C  0.34167843  0.99633510  0.79842643     0.20700
C1223       C  0.31970856  0.99290736  0.77585781    -0.32600
C1224       C  0.29662308  0.97159468  0.77919580     0.01400
C1225       C  0.29686111  0.95274861  0.80456242    -0.24000
C1226       C  0.37697357  0.97274488  0.89951601    -0.28500
C1227       C  0.40069205  0.99312014  0.89632650     0.07000
C1228       C  0.40372169  0.00934799  0.86935234    -0.27200
H1229       H  0.33190623  0.93313924  0.89883557     0.11700
H1230       H  0.29767201  0.92366010  0.85705412     0.12900
H1231       H  0.40312726  0.03824942  0.81620916     0.12000
H1232       H  0.36665020  0.03112600  0.77561905     0.11200
H1233       H  0.31964691  0.00789038  0.75675809     0.16600
H1234       H  0.27955417  0.93590286  0.80722718     0.12500
H1235       H  0.37483867  0.95988536  0.92004247     0.15400
H1236       H  0.42203601  0.02511050  0.86681409     0.15100
C1237       C  0.46424589  0.12959628  0.29488184    -0.17800
C1238       C  0.46336232  0.10805791  0.31777589    -0.19900
C1239       C  0.48330782  0.10975005  0.34210268     0.20700
C1240       C  0.50505129  0.13268677  0.34278119    -0.02800
C1241       C  0.50656349  0.15375464  0.31924819    -0.05900
C1242       C  0.48551801  0.15280080  0.29558080     0.21000
C1243       C  0.52840696  0.17655308  0.32012069     0.19200
C1244       C  0.54878286  0.17792142  0.34397699    -0.17400
C1245       C  0.54685504  0.15750229  0.36756946    -0.19600
C1246       C  0.52485002  0.13510369  0.36739389     0.20700
C1247       C  0.52220284  0.11526985  0.39155775    -0.32600
C1248       C  0.50075680  0.09237784  0.39103515     0.01400
C1249       C  0.48171977  0.08928289  0.36601349    -0.24000
C1250       C  0.48520415  0.17599850  0.27413726    -0.28500
C1251       C  0.50604566  0.19956275  0.27612191     0.07000
C1252       C  0.52843066  0.19874415  0.29814513    -0.27200
H1253       H  0.44801309  0.12836067  0.27687921     0.11700
H1254       H  0.44658986  0.09051723  0.31684243     0.12900
H1255       H  0.56564307  0.19538558  0.34485785     0.12000
H1256       H  0.56236644  0.15944890  0.38614261     0.11200
H1257       H  0.53730664  0.11714455  0.41050513     0.16600
H1258       H  0.46534165  0.07132629  0.36550966     0.12500
H1259       H  0.46776982  0.17677115  0.25726632     0.15400
H1260       H  0.54455207  0.21690916  0.29952438     0.15100
C1261       C  0.53213924  0.86779583  0.29406463    -0.17800
C1262       C  0.53262924  0.88853034  0.31766340    -0.19900
C1263       C  0.51585889  0.88335476  0.34378661     0.20700
C1264       C  0.49750805  0.85771489  0.34576116    -0.02800
C1265       C  0.49637739  0.83728871  0.32167070    -0.05900
C1266       C  0.51444110  0.84184658  0.29602362     0.21000
C1267       C  0.47807547  0.81164929  0.32381362     0.19200
C1268       C  0.46067233  0.80685408  0.34954550    -0.17400
C1269       C  0.46212942  0.82686201  0.37358662    -0.19600
C1270       C  0.48073344  0.85211972  0.37206605     0.20700
C1271       C  0.48280585  0.87188212  0.39637902    -0.32600
C1272       C  0.50074776  0.89756079  0.39437363     0.01400
C1273       C  0.51711823  0.90328470  0.36802497    -0.24000
C1274       C  0.51577147  0.81949999  0.27377271    -0.28500
C1275       C  0.49884036  0.79311885  0.27690802     0.07000
C1276       C  0.47885155  0.79024041  0.30103517    -0.27200
H1277       H  0.54595232  0.87181565  0.27450509     0.11700
H1278       H  0.54654065  0.90833496  0.31571473     0.12900
H1279       H  0.44656248  0.78716394  0.35141829     0.12000
H1280       H  0.44894146  0.82241800  0.39348831     0.11200
H1281       H  0.46974581  0.86783405  0.41647629     0.16600
H1282       H  0.53087183  0.92326116  0.36646030     0.12500
H1283       H  0.53148952  0.82162996  0.25539084     0.15400
H1284       H  0.46565238  0.76993302  0.30331129     0.15100
C1285       C  0.54705355  0.15840332  0.61813834    -0.17800
C1286       C  0.55095348  0.17806348  0.64223064    -0.19900
C1287       C  0.53107880  0.17760556  0.66656667     0.20700
C1288       C  0.50733869  0.15677799  0.66703777    -0.02800
C1289       C  0.50357855  0.13664910  0.64278722    -0.05900
C1290       C  0.52337503  0.13776690  0.61810135     0.21000
C1291       C  0.48001552  0.11556425  0.64314698     0.19200
C1292       C  0.46021197  0.11512112  0.66764552    -0.17400
C1293       C  0.46357475  0.13553799  0.69141782    -0.19600
C1294       C  0.48701885  0.15656507  0.69133823     0.20700
C1295       C  0.48979791  0.17824722  0.71428838    -0.32600
C1296       C  0.51268442  0.19993262  0.71299897     0.01400
C1297       C  0.53381384  0.19859910  0.68971287    -0.24000
C1298       C  0.51946872  0.11798951  0.59395317    -0.28500
C1299       C  0.49672218  0.09631850  0.59451291     0.07000
C1300       C  0.47698532  0.09517969  0.61914879    -0.27200
H1301       H  0.56254539  0.15938371  0.59947644     0.11700
H1302       H  0.56925774  0.19400538  0.64158858     0.12900
H1303       H  0.44195832  0.09912534  0.66831293     0.12000
H1304       H  0.44771207  0.13499984  0.70978144     0.11200
H1305       H  0.47312481  0.17949724  0.73189030     0.16600
H1306       H  0.55141037  0.21533936  0.68862125     0.12500
H1307       H  0.53494453  0.11858113  0.57522601     0.15400
H1308       H  0.45941635  0.07839648  0.61961164     0.15100
C1309       C  0.44914203  0.80957343  0.64249154    -0.17800
C1310       C  0.45086506  0.83003770  0.61875724    -0.19900
C1311       C  0.47115383  0.85406897  0.61982963     0.20700
C1312       C  0.48929895  0.85792454  0.64552598    -0.02800
C1313       C  0.48783587  0.83700654  0.66935014    -0.05900
C1314       C  0.46789435  0.81258252  0.66760258     0.21000
C1315       C  0.50705639  0.83994830  0.69437952     0.19200
C1316       C  0.52661726  0.86456426  0.69587554    -0.17400
C1317       C  0.52761601  0.88564055  0.67259480    -0.19600
C1318       C  0.50936782  0.88229940  0.64715143     0.20700
C1319       C  0.51105444  0.90271164  0.62319690    -0.32600
C1320       C  0.49361741  0.89862317  0.59718511     0.01400
C1321       C  0.47374811  0.87418345  0.59564237    -0.24000
C1322       C  0.46813984  0.79073253  0.69019316    -0.28500
C1323       C  0.48880385  0.79216552  0.71406500     0.07000
C1324       C  0.50747889  0.81745372  0.71659911    -0.27200
H1325       H  0.43364725  0.79093132  0.64085491     0.11700
H1326       H  0.43655897  0.82685922  0.59939723     0.12900
H1327       H  0.54147990  0.86729872  0.71487716     0.12000
H1328       H  0.54310743  0.90428329  0.67423884     0.11200
H1329       H  0.52633424  0.92157784  0.62454174     0.16600
H1330       H  0.45987727  0.87123499  0.57590529     0.12500
H1331       H  0.45349861  0.77142565  0.68814970     0.15400
H1332       H  0.52379211  0.81859923  0.73452762     0.15100
C1333       C  0.32467394  0.96427617  0.37806507    -0.17800
C1334       C  0.30231156  0.96498172  0.35610238    -0.19900
C1335       C  0.30541281  0.98330800  0.33071082     0.20700
C1336       C  0.33126815  0.00119578  0.32749835    -0.02800
C1337       C  0.35430370  0.99976708  0.34920531    -0.05900
C1338       C  0.35084260  0.98139929  0.37472769     0.21000
C1339       C  0.38077675  0.01664469  0.34532793     0.19200
C1340       C  0.38357224  0.03541202  0.32020285    -0.17400
C1341       C  0.36036933  0.03749910  0.29918279    -0.19600
C1342       C  0.33421141  0.02033601  0.30251622     0.20700
C1343       C  0.31110750  0.02174219  0.28118054    -0.32600
C1344       C  0.28580971  0.00293405  0.28338726     0.01400
C1345       C  0.28331385  0.98371652  0.30831787    -0.24000
C1346       C  0.37357251  0.98048028  0.39645883    -0.28500
C1347       C  0.40022363  0.99688776  0.39260621     0.07000
C1348       C  0.40381319  0.01464243  0.36675899    -0.27200
H1349       H  0.32163899  0.95006301  0.39752957     0.11700
H1350       H  0.28251409  0.95124999  0.35903587     0.12900
H1351       H  0.40364668  0.04863901  0.31690054     0.12000
H1352       H  0.36305897  0.05226017  0.28008246     0.11200
H1353       H  0.31301139  0.03726567  0.26263132     0.16600
H1354       H  0.26443536  0.96862510  0.31011519     0.12500
H1355       H  0.37070747  0.96667325  0.41626241     0.15400
H1356       H  0.42414149  0.02759237  0.36381870     0.15100
C1357       C  0.63962392  0.94925208  0.68358816    -0.17800
C1358       C  0.61645296  0.95131316  0.66260592    -0.19900
C1359       C  0.61684640  0.97380688  0.64062160     0.20700
C1360       C  0.64087854  0.99439679  0.63973372    -0.02800
C1361       C  0.66397242  0.99265626  0.66127439    -0.05900
C1362       C  0.66333846  0.96992710  0.68322961     0.21000
C1363       C  0.68761688  0.01369658  0.66088677     0.19200
C1364       C  0.68821457  0.03592175  0.63862772    -0.17400
C1365       C  0.66565193  0.03728282  0.61690809    -0.19600
C1366       C  0.64189255  0.01667219  0.61728401     0.20700
C1367       C  0.61926381  0.01777522  0.59549575    -0.32600
C1368       C  0.59521345  0.99748693  0.59643792     0.01400
C1369       C  0.59386439  0.97585648  0.61928010    -0.24000
C1370       C  0.68625534  0.96844907  0.70462757    -0.28500
C1371       C  0.70939845  0.98987853  0.70504861     0.07000
C1372       C  0.71002272  0.01233728  0.68294694    -0.27200
H1373       H  0.63884960  0.93164193  0.70029507     0.11700
H1374       H  0.59828937  0.93521551  0.66348320     0.12900
H1375       H  0.70620188  0.05221777  0.63795782     0.12000
H1376       H  0.66672648  0.05455060  0.59986346     0.11200
H1377       H  0.62019688  0.03450864  0.57788651     0.16600
H1378       H  0.57543909  0.96001173  0.61977903     0.12500
H1379       H  0.68600845  0.95071171  0.72120343     0.15400
H1380       H  0.72762463  0.02905028  0.68329352     0.15100
C1381       C  0.32652271  0.02895054  0.61701891    -0.17800
C1382       C  0.30537516  0.02769603  0.64019470    -0.19900
C1383       C  0.30779619  0.00619860  0.66305457     0.20700
C1384       C  0.33204693  0.98599517  0.66271891    -0.02800
C1385       C  0.35369771  0.98756173  0.63953348    -0.05900
C1386       C  0.35072156  0.00894397  0.61637794     0.21000
C1387       C  0.37826301  0.96773515  0.63951847     0.19200
C1388       C  0.38074447  0.94629484  0.66245084    -0.17400
C1389       C  0.35904541  0.94441034  0.68508100    -0.19600
C1390       C  0.33460839  0.96415318  0.68544984     0.20700
C1391       C  0.31257582  0.96225577  0.70794325    -0.32600
C1392       C  0.28820809  0.98226139  0.70847084     0.01400
C1393       C  0.28630543  0.00444382  0.68607880    -0.24000
C1394       C  0.37203928  0.01006365  0.59311683    -0.28500
C1395       C  0.39686560  0.99074771  0.59320640     0.07000
C1396       C  0.39988963  0.96975393  0.61662814    -0.27200
H1397       H  0.32396107  0.04564679  0.59958021     0.11700
H1398       H  0.28693889  0.04342030  0.64008849     0.12900
H1399       H  0.39941070  0.93084359  0.66280033     0.12000
H1400       H  0.36142093  0.92751648  0.70235894     0.11200
H1401       H  0.31411252  0.94489321  0.72483857     0.16600
H1402       H  0.26801991  0.02031469  0.68653430     0.12500
H1403       H  0.36978856  0.02650098  0.57536712     0.15400
H1404       H  0.41895167  0.95475699  0.61680150     0.15100
C1405       C  0.65715814  0.94281339  0.11804362    -0.17800
C1406       C  0.67540418  0.93572169  0.14236664    -0.19900
C1407       C  0.67520565  0.95366912  0.16820795     0.20700
C1408       C  0.65564322  0.97833525  0.17017423    -0.02800
C1409       C  0.63656892  0.98500680  0.14585838    -0.05900
C1410       C  0.63794744  0.96753532  0.11944060     0.21000
C1411       C  0.61647166  0.00928411  0.14778008     0.19200
C1412       C  0.61588608  0.02681228  0.17402292    -0.17400
C1413       C  0.63574222  0.02092982  0.19769227    -0.19600
C1414       C  0.65600039  0.99692943  0.19587526     0.20700
C1415       C  0.67785485  0.99220953  0.21821858    -0.32600
C1416       C  0.69867953  0.96873839  0.21512420     0.01400
C1417       C  0.69574837  0.94849425  0.19115557    -0.24000
C1418       C  0.61976171  0.97468750  0.09498573    -0.28500
C1419       C  0.59902227  0.99807789  0.09698060     0.07000
C1420       C  0.59727478  0.01529432  0.12348188    -0.27200
H1421       H  0.65809892  0.92898537  0.09809271     0.11700
H1422       H  0.69037437  0.91672419  0.14059071     0.12900
H1423       H  0.60050779  0.04546184  0.17598449     0.12000
H1424       H  0.63549364  0.03536681  0.21725898     0.11200
H1425       H  0.68013139  0.00804422  0.23654523     0.16600
H1426       H  0.71163319  0.93027490  0.18887745     0.12500
H1427       H  0.62053864  0.96095339  0.07490312     0.15400
H1428       H  0.58093137  0.03315151  0.12515616     0.15100
C1429       C  0.61625202  0.94334862  0.32796064    -0.17800
C1430       C  0.63850286  0.94050520  0.30602054    -0.19900
C1431       C  0.66420020  0.95862933  0.30697847     0.20700
C1432       C  0.66779893  0.97932349  0.33067633    -0.02800
C1433       C  0.64562871  0.98172888  0.35321041    -0.05900
C1434       C  0.61946408  0.96405852  0.35151338     0.21000
C1435       C  0.64948026  0.00209470  0.37719201     0.19200
C1436       C  0.67542578  0.01984288  0.37838321    -0.17400
C1437       C  0.69701560  0.01796285  0.35569732    -0.19600
C1438       C  0.69332014  0.99794558  0.33164413     0.20700
C1439       C  0.71447365  0.99655539  0.30837149    -0.32600
C1440       C  0.71124746  0.97587010  0.28469070     0.01400
C1441       C  0.68619734  0.95662882  0.28454195    -0.24000
C1442       C  0.59691018  0.96759928  0.37323514    -0.28500
C1443       C  0.60052402  0.98791372  0.39718186     0.07000
C1444       C  0.62715495  0.00465936  0.39929577    -0.27200
H1445       H  0.59647959  0.92938300  0.32646509     0.11700
H1446       H  0.63539127  0.92442753  0.28803599     0.12900
H1447       H  0.67880805  0.03555111  0.39664073     0.12000
H1448       H  0.71660178  0.03225133  0.35693121     0.11200
H1449       H  0.73320477  0.01194815  0.30850124     0.16600
H1450       H  0.68374418  0.94017107  0.26682139     0.12500
H1451       H  0.57667047  0.95428823  0.37175417     0.15400
H1452       H  0.63009288  0.02031388  0.41770081     0.15100
C1453       C  0.37471049  0.83631074  0.54437580    -0.17800
C1454       C  0.35046685  0.81707643  0.54862742    -0.19900
C1455       C  0.32573307  0.81829308  0.52933111     0.20700
C1456       C  0.32478558  0.83971035  0.50614784    -0.02800
C1457       C  0.34905554  0.85949880  0.50217841    -0.05900
C1458       C  0.37434861  0.85730765  0.52104929     0.21000
C1459       C  0.34824853  0.88109452  0.47909564     0.19200
C1460       C  0.32313956  0.88270401  0.46024774    -0.17400
C1461       C  0.29939174  0.86243947  0.46366000    -0.19600
C1462       C  0.30015440  0.84056888  0.48628906     0.20700
C1463       C  0.27775846  0.81842415  0.48838519    -0.32600
C1464       C  0.27975936  0.79596075  0.51040269     0.01400
C1465       C  0.30282759  0.79719642  0.53174882    -0.24000
C1466       C  0.39876166  0.87632389  0.51648590    -0.28500
C1467       C  0.39777974  0.89826171  0.49410599     0.07000
C1468       C  0.37253812  0.90070483  0.47546557    -0.27200
H1469       H  0.39383405  0.83462536  0.55919688     0.11700
H1470       H  0.35142125  0.80067154  0.56650798     0.12900
H1471       H  0.32211588  0.89927567  0.44252023     0.12000
H1472       H  0.28063751  0.86358874  0.44832691     0.11200
H1473       H  0.26017060  0.81737745  0.47169362     0.16600
H1474       H  0.30425437  0.77997996  0.54885568     0.12500
H1475       H  0.41803766  0.87496654  0.53119347     0.15400
H1476       H  0.37186069  0.91788748  0.45828218     0.15100
C1477       C  0.64497875  0.81355998  0.44297283    -0.17800
C1478       C  0.62088936  0.83315607  0.44647463    -0.19900
C1479       C  0.62151615  0.85531189  0.46881770     0.20700
C1480       C  0.64681516  0.85794623  0.48765010    -0.02800
C1481       C  0.67088205  0.83775901  0.48450831    -0.05900
C1482       C  0.66984621  0.81549788  0.46208336     0.21000
C1483       C  0.69553708  0.83929778  0.50431445     0.19200
C1484       C  0.69636849  0.86187224  0.52627337    -0.17400
C1485       C  0.67290536  0.88248755  0.52880560    -0.19600
C1486       C  0.64793135  0.88053219  0.50980252     0.20700
C1487       C  0.62407689  0.90076208  0.51247472    -0.32600
C1488       C  0.59874499  0.89801111  0.49397447     0.01400
C1489       C  0.59741319  0.87503507  0.47248222    -0.24000
C1490       C  0.69292670  0.79452097  0.46014331    -0.28500
C1491       C  0.71627040  0.79427123  0.48130442     0.07000
C1492       C  0.71806057  0.81733160  0.50274982    -0.27200
H1493       H  0.64386991  0.79644304  0.42572795     0.11700
H1494       H  0.60174306  0.83095068  0.43173512     0.12900
H1495       H  0.71506555  0.86344780  0.54164975     0.12000
H1496       H  0.67409353  0.89971289  0.54593229     0.11200
H1497       H  0.62507776  0.91857469  0.52903435     0.16600
H1498       H  0.57807596  0.87324537  0.45790064     0.12500
H1499       H  0.69155192  0.77681486  0.44348818     0.15400
H1500       H  0.73570018  0.81699644  0.51940950     0.15100
C1501       C  0.62812706  0.15502051  0.54773958    -0.17800
C1502       C  0.65188063  0.17540933  0.54937565    -0.19900
C1503       C  0.67391426  0.17599174  0.52695068     0.20700
C1504       C  0.67250177  0.15534278  0.50301505    -0.02800
C1505       C  0.64846088  0.13477092  0.50132899    -0.05900
C1506       C  0.62595405  0.13491092  0.52360760     0.21000
C1507       C  0.64668191  0.11443508  0.47711672     0.19200
C1508       C  0.66898948  0.11475539  0.45493627    -0.17400
C1509       C  0.69264326  0.13536076  0.45644993    -0.19600
C1510       C  0.69454345  0.15590657  0.48027292     0.20700
C1511       C  0.71718018  0.17791764  0.48103632    -0.32600
C1512       C  0.71763056  0.19951803  0.50401594     0.01400
C1513       C  0.69650021  0.19779697  0.52731679    -0.24000
C1514       C  0.60162574  0.11505941  0.52127984    -0.28500
C1515       C  0.59984878  0.09471114  0.49730061     0.07000
C1516       C  0.62256490  0.09425959  0.47548243    -0.27200
H1517       H  0.61123149  0.15525298  0.56515752     0.11700
H1518       H  0.65272662  0.19110920  0.56793108     0.12900
H1519       H  0.66794824  0.09928703  0.43619466     0.12000
H1520       H  0.70925267  0.13548070  0.43875674     0.11200
H1521       H  0.73305175  0.17958304  0.46272867     0.16600
H1522       H  0.69667111  0.21464942  0.54488471     0.12500
H1523       H  0.58441275  0.11493566  0.53841864     0.15400
H1524       H  0.62126588  0.07832044  0.45712528     0.15100
C1525       C  0.36732076  0.14959280  0.54506727    -0.17800
C1526       C  0.34315988  0.16915231  0.54795807    -0.19900
C1527       C  0.32186786  0.17146442  0.52498858     0.20700
C1528       C  0.32433403  0.15326607  0.49920084    -0.02800
C1529       C  0.34874947  0.13345197  0.49629613    -0.05900
C1530       C  0.37052349  0.13199615  0.51920254     0.21000
C1531       C  0.35164946  0.11549356  0.47035020     0.19200
C1532       C  0.33002535  0.11755506  0.44757921    -0.17400
C1533       C  0.30601875  0.13756724  0.45027314    -0.19600
C1534       C  0.30308909  0.15573134  0.47586565     0.20700
C1535       C  0.28046617  0.17757045  0.47781860    -0.32600
C1536       C  0.27935272  0.19703614  0.50259479     0.01400
C1537       C  0.29924618  0.19298711  0.52658511    -0.24000
C1538       C  0.39509972  0.11290403  0.51596520    -0.28500
C1539       C  0.39786956  0.09464610  0.49056081     0.07000
C1540       C  0.37606492  0.09578608  0.46783033    -0.27200
H1541       H  0.38371430  0.14848745  0.56292682     0.11700
H1542       H  0.34149662  0.18298679  0.56788693     0.12900
H1543       H  0.33188357  0.10395901  0.42750515     0.12000
H1544       H  0.28999880  0.13917653  0.43211876     0.11200
H1545       H  0.26538295  0.18107346  0.45911847     0.16600
H1546       H  0.29847911  0.20827594  0.54552054     0.12500
H1547       H  0.41162925  0.11142594  0.53370957     0.15400
H1548       H  0.37814623  0.08134231  0.44835336     0.15100
C1549       C  0.79895133  0.96325681  0.62567017    -0.17800
C1550       C  0.82253076  0.96291792  0.60497756    -0.19900
C1551       C  0.84772074  0.98131111  0.60920889     0.20700
C1552       C  0.84874102  0.00102381  0.63391938    -0.02800
C1553       C  0.82473096  0.00170102  0.65453305    -0.05900
C1554       C  0.79999207  0.98222101  0.65080918     0.21000
C1555       C  0.82604548  0.02106236  0.67948362     0.19200
C1556       C  0.85069610  0.04027325  0.68312586    -0.17400
C1557       C  0.87451678  0.03949774  0.66280590    -0.19600
C1558       C  0.87405644  0.01954866  0.63845649     0.20700
C1559       C  0.89852689  0.01760359  0.61874367    -0.32600
C1560       C  0.89770171  0.99783275  0.59421434     0.01400
C1561       C  0.87204225  0.98009827  0.58936950    -0.24000
C1562       C  0.77759808  0.98100698  0.67304294    -0.28500
C1563       C  0.77979958  0.99909813  0.69880119     0.07000
C1564       C  0.80345535  0.01983748  0.70117702    -0.27200
H1565       H  0.78013915  0.94828633  0.62228631     0.11700
H1566       H  0.82133318  0.94780264  0.58596140     0.12900
H1567       H  0.85189537  0.05539953  0.70213287     0.12000
H1568       H  0.89353198  0.05415523  0.66642745     0.11200
H1569       H  0.91791992  0.03185216  0.62209251     0.16600
H1570       H  0.87120352  0.96502848  0.57026923     0.12500
H1571       H  0.75969047  0.96468796  0.67128496     0.15400
H1572       H  0.80519832  0.03384595  0.72101188     0.15100
C1573       C  0.12303607  0.03061312  0.66510076    -0.17800
C1574       C  0.14642616  0.02992818  0.68588141    -0.19900
C1575       C  0.17131553  0.01137524  0.68114290     0.20700
C1576       C  0.17308521  0.99381281  0.65493090    -0.02800
C1577       C  0.14948572  0.99464726  0.63380547    -0.05900
C1578       C  0.12415480  0.01282046  0.63917554     0.21000
C1579       C  0.15097985  0.97692976  0.60764355     0.19200
C1580       C  0.17613002  0.95868553  0.60278669    -0.17400
C1581       C  0.19928745  0.95747479  0.62398214    -0.19600
C1582       C  0.19792617  0.97474018  0.65031449     0.20700
C1583       C  0.22010670  0.97226663  0.67273947    -0.32600
C1584       C  0.21762596  0.98881799  0.69950413     0.01400
C1585       C  0.19374283  0.00908426  0.70288488    -0.24000
C1586       C  0.10028747  0.01276251  0.61869138    -0.28500
C1587       C  0.10160931  0.99528554  0.59252662     0.07000
C1588       C  0.12719189  0.97763348  0.58699248    -0.27200
H1589       H  0.10390302  0.04483986  0.66947352     0.11700
H1590       H  0.14477813  0.04351149  0.70598367     0.12900
H1591       H  0.17771268  0.94502418  0.58275647     0.12000
H1592       H  0.21810487  0.94274809  0.61993167     0.11200
H1593       H  0.23809329  0.95620297  0.67022921     0.16600
H1594       H  0.19162085  0.02173967  0.72357452     0.12500
H1595       H  0.08088874  0.02672937  0.62281296     0.15400
H1596       H  0.12834366  0.96409150  0.56681128     0.15100
C1597       C  0.14678251  0.95114590  0.30977447    -0.17800
C1598       C  0.12321070  0.95181386  0.33032791    -0.19900
C1599       C  0.12315697  0.97281786  0.35374748     0.20700
C1600       C  0.14769618  0.99259677  0.35717338    -0.02800
C1601       C  0.17132656  0.99217870  0.33618674    -0.05900
C1602       C  0.17054202  0.97161795  0.31219713     0.21000
C1603       C  0.19510104  0.01303679  0.33854510     0.19200
C1604       C  0.19572591  0.03302980  0.36289140    -0.17400
C1605       C  0.17262486  0.03297995  0.38412678    -0.19600
C1606       C  0.14825194  0.01328552  0.38109550     0.20700
C1607       C  0.12420324  0.01418104  0.40125993    -0.32600
C1608       C  0.09924586  0.99529877  0.39727169     0.01400
C1609       C  0.09887554  0.97459844  0.37358785    -0.24000
C1610       C  0.19274513  0.97278455  0.29019903    -0.28500
C1611       C  0.21533265  0.99475649  0.29113976     0.07000
C1612       C  0.21695126  0.01437214  0.31579417    -0.27200
H1613       H  0.14603395  0.93512386  0.29149221     0.11700
H1614       H  0.10479262  0.93621282  0.32762646     0.12900
H1615       H  0.21383974  0.04902711  0.36525662     0.12000
H1616       H  0.17347057  0.04884501  0.40254224     0.11200
H1617       H  0.12460316  0.02993840  0.41981467     0.16600
H1618       H  0.07998537  0.95951907  0.37102270     0.12500
H1619       H  0.19148488  0.95762768  0.27118489     0.15400
H1620       H  0.23407951  0.03159369  0.31638782     0.15100
C1621       C  0.87233652  0.03166611  0.32722022    -0.17800
C1622       C  0.84935835  0.02988617  0.30602605    -0.19900
C1623       C  0.82604287  0.00906744  0.30952171     0.20700
C1624       C  0.82519670  0.99055739  0.33509069    -0.02800
C1625       C  0.84824951  0.99259517  0.35667640    -0.05900
C1626       C  0.87227692  0.01279196  0.35235949     0.21000
C1627       C  0.84759832  0.97398019  0.38219645     0.19200
C1628       C  0.82376347  0.95378327  0.38606794    -0.17400
C1629       C  0.80123060  0.95133169  0.36436539    -0.19600
C1630       C  0.80186271  0.96938541  0.33861593     0.20700
C1631       C  0.78029303  0.96595246  0.31583860    -0.32600
C1632       C  0.78177160  0.98368976  0.28986717     0.01400
C1633       C  0.80422271  0.00566900  0.28730296    -0.24000
C1634       C  0.89599954  0.01347152  0.37301093    -0.28500
C1635       C  0.89560471  0.99481267  0.39833800     0.07000
C1636       C  0.87104462  0.97556112  0.40310061    -0.27200
H1637       H  0.89038027  0.04753179  0.32373081     0.11700
H1638       H  0.85017504  0.04435623  0.28653542     0.12900
H1639       H  0.82282184  0.93949829  0.40565184     0.12000
H1640       H  0.78347991  0.93507866  0.36757484     0.11200
H1641       H  0.76330865  0.94867175  0.31763497     0.16600
H1642       H  0.80542488  0.01930202  0.26720416     0.12500
H1643       H  0.91459789  0.02872981  0.36961275     0.15400
H1644       H  0.87060823  0.96124150  0.42273102     0.15100
C1645       C  0.19124132  0.85918100  0.53653050    -0.17800
C1646       C  0.16938151  0.88152642  0.53494773    -0.19900
C1647       C  0.14524900  0.87871839  0.51502972     0.20700
C1648       C  0.14329249  0.85327098  0.49625085    -0.02800
C1649       C  0.16579503  0.83103803  0.49733535    -0.05900
C1650       C  0.18961839  0.83383666  0.51787670     0.21000
C1651       C  0.16432130  0.80593736  0.47806906     0.19200
C1652       C  0.14019855  0.80320158  0.45806850    -0.17400
C1653       C  0.11749935  0.82483556  0.45752350    -0.19600
C1654       C  0.11878364  0.84993583  0.47655535     0.20700
C1655       C  0.09607195  0.87175241  0.47627792    -0.32600
C1656       C  0.09818707  0.89738452  0.49462951     0.01400
C1657       C  0.12297160  0.90081082  0.51371916    -0.24000
C1658       C  0.21126625  0.81115529  0.51962343    -0.28500
C1659       C  0.21033332  0.78615263  0.50027228     0.07000
C1660       C  0.18687270  0.78398055  0.47926958    -0.27200
H1661       H  0.20947936  0.86176057  0.55232725     0.11700
H1662       H  0.17119099  0.90087923  0.54953446     0.12900
H1663       H  0.13868733  0.78411000  0.44308165     0.12000
H1664       H  0.09896206  0.82196928  0.44213206     0.11200
H1665       H  0.07705209  0.86912366  0.46141564     0.16600
H1666       H  0.12452005  0.92039319  0.52808662     0.12500
H1667       H  0.22876919  0.81286505  0.53630972     0.15400
H1668       H  0.18617453  0.76524273  0.46382189     0.15100
C1669       C  0.85517039  0.80450998  0.53650447    -0.17800
C1670       C  0.87819542  0.82588659  0.53658090    -0.19900
C1671       C  0.87796670  0.84975218  0.51606260     0.20700
C1672       C  0.85433201  0.85197106  0.49517168    -0.02800
C1673       C  0.83138645  0.83010452  0.49476417    -0.05900
C1674       C  0.83169600  0.80636466  0.51564896     0.21000
C1675       C  0.80819992  0.83197953  0.47338662     0.19200
C1676       C  0.80790944  0.85585025  0.45290574    -0.17400
C1677       C  0.83033098  0.87774691  0.45362758    -0.19600
C1678       C  0.85358106  0.87604815  0.47466516     0.20700
C1679       C  0.87600779  0.89805929  0.47560188    -0.32600
C1680       C  0.89963350  0.89596013  0.49623270     0.01400
C1681       C  0.90077069  0.87154239  0.51614248    -0.24000
C1682       C  0.80866505  0.78482320  0.51514659    -0.28500
C1683       C  0.78586339  0.78603922  0.49334920     0.07000
C1684       C  0.78589961  0.80979569  0.47259248    -0.27200
H1685       H  0.85583521  0.78638492  0.55264866     0.11700
H1686       H  0.89611072  0.82383693  0.55281022     0.12900
H1687       H  0.79026775  0.85763888  0.43635320     0.12000
H1688       H  0.82953854  0.89597921  0.43764974     0.11200
H1689       H  0.87535041  0.91667898  0.45999744     0.16600
H1690       H  0.91899121  0.86994934  0.53210823     0.12500
H1691       H  0.80858597  0.76696185  0.53157660     0.15400
H1692       H  0.76880054  0.81073020  0.45542922     0.15100
C1693       C  0.85553698  0.18540217  0.45114582    -0.17800
C1694       C  0.87790444  0.16349266  0.45194969    -0.19900
C1695       C  0.87750964  0.14108846  0.47403050     0.20700
C1696       C  0.85455598  0.14094805  0.49576366    -0.02800
C1697       C  0.83218000  0.16329214  0.49515782    -0.05900
C1698       C  0.83251110  0.18544980  0.47256298     0.21000
C1699       C  0.80944342  0.16337848  0.51709078     0.19200
C1700       C  0.80938466  0.14131421  0.53952636    -0.17400
C1701       C  0.83132506  0.11896159  0.53991547    -0.19600
C1702       C  0.85385732  0.11840400  0.51799796     0.20700
C1703       C  0.87561831  0.09568476  0.51780481    -0.32600
C1704       C  0.89848383  0.09577262  0.49617129     0.01400
C1705       C  0.89954343  0.11873196  0.47464693    -0.24000
C1706       C  0.80983550  0.20723156  0.47180462    -0.28500
C1707       C  0.78713710  0.20755966  0.49369227     0.07000
C1708       C  0.78723475  0.18556612  0.51629272    -0.27200
H1709       H  0.85625508  0.20233282  0.43375188     0.11700
H1710       H  0.89541136  0.16394030  0.43514459     0.12900
H1711       H  0.79219427  0.14119464  0.55665457     0.12000
H1712       H  0.83060714  0.10203853  0.55731962     0.11200
H1713       H  0.87507959  0.07819979  0.53468293     0.16600
H1714       H  0.91722119  0.11877567  0.45798810     0.12500
H1715       H  0.80978789  0.22392814  0.45418217     0.15400
H1716       H  0.77021452  0.18603870  0.53357021     0.15100
C1717       C  0.11474875  0.17111723  0.45758720    -0.17800
C1718       C  0.13741811  0.19289783  0.45757805    -0.19900
C1719       C  0.16279204  0.18956477  0.47583375     0.20700
C1720       C  0.16542461  0.16383498  0.49402220    -0.02800
C1721       C  0.14300534  0.14140647  0.49333615    -0.05900
C1722       C  0.11728802  0.14527661  0.47540066     0.21000
C1723       C  0.14626840  0.11522230  0.51077475     0.19200
C1724       C  0.17163504  0.11184187  0.52897350    -0.17400
C1725       C  0.19330533  0.13446808  0.53038661    -0.19600
C1726       C  0.19038648  0.16054278  0.51303279     0.20700
C1727       C  0.21202183  0.18333038  0.51439364    -0.32600
C1728       C  0.21028792  0.20869505  0.49563664     0.01400
C1729       C  0.18560177  0.21138862  0.47614996    -0.24000
C1730       C  0.09458496  0.12332300  0.47575585    -0.28500
C1731       C  0.09778665  0.09710055  0.49305398     0.07000
C1732       C  0.12395624  0.09305325  0.51006045    -0.27200
H1733       H  0.09525727  0.17444375  0.44355971     0.11700
H1734       H  0.13494504  0.21253152  0.44351138     0.12900
H1735       H  0.17450763  0.09186384  0.54247047     0.12000
H1736       H  0.21247731  0.13147863  0.54492902     0.11200
H1737       H  0.23026623  0.18124591  0.53018184     0.16600
H1738       H  0.18417122  0.23035800  0.46110947     0.12500
H1739       H  0.07465415  0.12639408  0.46227066     0.15400
H1740       H  0.12655139  0.07295235  0.52346766     0.15100
C1741       C  0.94064177  0.65934536  0.11470149    -0.17800
C1742       C  0.93638724  0.67971181  0.13825521    -0.19900
C1743       C  0.95441706  0.67847665  0.16403118     0.20700
C1744       C  0.97639016  0.65604025  0.16649242    -0.02800
C1745       C  0.98034182  0.63513254  0.14291463    -0.05900
C1746       C  0.96275524  0.63713372  0.11665039     0.21000
C1747       C  0.00224965  0.61258081  0.14542328     0.19200
C1748       C  0.01995988  0.61113080  0.17139160    -0.17400
C1749       C  0.01656953  0.63231277  0.19437061    -0.19600
C1750       C  0.99503329  0.65503840  0.19207984     0.20700
C1751       C  0.99276933  0.67753810  0.21418883    -0.32600
C1752       C  0.97165653  0.70069468  0.21130001     0.01400
C1753       C  0.95175317  0.70011529  0.18672896    -0.24000
C1754       C  0.96769854  0.61699337  0.09281338    -0.28500
C1755       C  0.98941906  0.59434122  0.09526121     0.07000
C1756       C  0.00628205  0.59206684  0.12182543    -0.27200
H1757       H  0.92677263  0.66111403  0.09485676     0.11700
H1758       H  0.91941562  0.69687296  0.13601458     0.12900
H1759       H  0.03685321  0.59390774  0.17369793     0.12000
H1760       H  0.03102447  0.63108871  0.21382875     0.11200
H1761       H  0.00865058  0.67800850  0.23252308     0.16600
H1762       H  0.93524861  0.71772617  0.18433177     0.12500
H1763       H  0.95423614  0.61849351  0.07264448     0.15400
H1764       H  0.02295742  0.57457168  0.12388649     0.15100
C1765       C  0.96973958  0.81634899  0.38987995    -0.17800
C1766       C  0.96879055  0.79331639  0.36848151    -0.19900
C1767       C  0.98397597  0.79632890  0.34108712     0.20700
C1768       C  0.00112414  0.82248210  0.33575601    -0.02800
C1769       C  0.00134316  0.84608663  0.35692736    -0.05900
C1770       C  0.98540130  0.84304751  0.38401739     0.21000
C1771       C  0.01675783  0.87305952  0.35054804     0.19200
C1772       C  0.03304032  0.87558944  0.32379227    -0.17400
C1773       C  0.03334671  0.85198420  0.30312782    -0.19600
C1774       C  0.01697086  0.82566667  0.30865948     0.20700
C1775       C  0.01467963  0.80334529  0.28671836    -0.32600
C1776       C  0.99539290  0.77862631  0.29052521     0.01400
C1777       C  0.98090079  0.77463133  0.31823738    -0.24000
C1778       C  0.98493446  0.86697242  0.40447726    -0.28500
C1779       C  0.99942585  0.89426326  0.39782905     0.07000
C1780       C  0.01534018  0.89712507  0.37083985    -0.27200
H1781       H  0.95753077  0.81360776  0.41069460     0.11700
H1782       H  0.95571591  0.77337934  0.37313470     0.12900
H1783       H  0.04522225  0.89597979  0.31866124     0.12000
H1784       H  0.04562416  0.85470368  0.28235106     0.11200
H1785       H  0.02606611  0.80643642  0.26545907     0.16600
H1786       H  0.96570222  0.75592176  0.32124761     0.12500
H1787       H  0.97268399  0.86461017  0.42533743     0.15400
H1788       H  0.02700084  0.91788368  0.36589065     0.15100
C1789       C  0.96275769  0.30498626  0.84936493    -0.17800
C1790       C  0.96385689  0.32526382  0.87323111    -0.19900
C1791       C  0.98131912  0.35130798  0.87112388     0.20700
C1792       C  0.99713620  0.35744335  0.84434223    -0.02800
C1793       C  0.99642740  0.33673912  0.82045975    -0.05900
C1794       C  0.97941571  0.31028506  0.82322601     0.21000
C1795       C  0.01379250  0.34183335  0.79443710     0.19200
C1796       C  0.03012616  0.36859144  0.79178295    -0.17400
C1797       C  0.03022456  0.38953582  0.81518653    -0.19600
C1798       C  0.01434724  0.38381349  0.84175852     0.20700
C1799       C  0.01565556  0.40379235  0.86595100    -0.32600
C1800       C  0.00047224  0.39747540  0.89289028     0.01400
C1801       C  0.98340107  0.37120637  0.89538547    -0.24000
C1802       C  0.98072309  0.28871545  0.80059372    -0.28500
C1803       C  0.00007642  0.29228493  0.77600030     0.07000
C1804       C  0.01589562  0.31929441  0.77248155    -0.27200
H1805       H  0.94959733  0.28469529  0.85171305     0.11700
H1806       H  0.95136992  0.32038131  0.89348434     0.12900
H1807       H  0.04330638  0.37303659  0.77187842     0.12000
H1808       H  0.04333953  0.40985634  0.81281697     0.11200
H1809       H  0.02879406  0.42416453  0.86397412     0.16600
H1810       H  0.97121746  0.36665005  0.91592134     0.12500
H1811       H  0.96828420  0.26797361  0.80319429     0.15400
H1812       H  0.03122461  0.32198593  0.75385150     0.15100
C1813       C  0.06043195  0.14970740  0.66898215    -0.17800
C1814       C  0.05640320  0.12548945  0.64955057    -0.19900
C1815       C  0.03160297  0.12449023  0.63037830     0.20700
C1816       C  0.01102984  0.14851555  0.63013016    -0.02800
C1817       C  0.01489141  0.17280226  0.65004626    -0.05900
C1818       C  0.03955926  0.17311588  0.66972749     0.21000
C1819       C  0.99349053  0.19607618  0.65115769     0.19200
C1820       C  0.96916350  0.19545688  0.63124706    -0.17400
C1821       C  0.96574342  0.17170932  0.61089351    -0.19600
C1822       C  0.98631283  0.14793452  0.61047421     0.20700
C1823       C  0.98262040  0.12347615  0.59094328    -0.32600
C1824       C  0.00274519  0.09927416  0.59172256     0.01400
C1825       C  0.02703212  0.09982559  0.61150763    -0.24000
C1826       C  0.04198987  0.19580531  0.69115372    -0.28500
C1827       C  0.01956458  0.21755132  0.69411120     0.07000
C1828       C  0.99594650  0.21844397  0.67333819    -0.27200
H1829       H  0.07945557  0.14972554  0.68403176     0.11700
H1830       H  0.07250136  0.10735637  0.64977161     0.12900
H1831       H  0.95254468  0.21309983  0.63172087     0.12000
H1832       H  0.94668047  0.17163456  0.59589402     0.11200
H1833       H  0.96403518  0.12306443  0.57532131     0.16600
H1834       H  0.04287749  0.08143272  0.61149154     0.12500
H1835       H  0.06010841  0.19514874  0.70731869     0.15400
H1836       H  0.97838696  0.23497364  0.67593077     0.15100
C1837       C  0.02877518  0.60887207  0.81725006    -0.17800
C1838       C  0.02605955  0.62965648  0.79390139    -0.19900
C1839       C  0.00426307  0.65222066  0.79514790     0.20700
C1840       C  0.98461672  0.65342350  0.81997976    -0.02800
C1841       C  0.98786895  0.63297178  0.84389542    -0.05900
C1842       C  0.01009544  0.61061877  0.84250256     0.21000
C1843       C  0.96932400  0.63532793  0.86946838     0.19200
C1844       C  0.94694615  0.65729961  0.87037900    -0.17400
C1845       C  0.94345684  0.67729143  0.84651252    -0.19600
C1846       C  0.96249183  0.67581850  0.82150516     0.20700
C1847       C  0.96095281  0.69747830  0.79890041    -0.32600
C1848       C  0.98201393  0.69798555  0.77543013     0.01400
C1849       C  0.00289499  0.67462334  0.77298281    -0.24000
C1850       C  0.01341357  0.59060566  0.86650717    -0.28500
C1851       C  0.99548784  0.59331113  0.89227736     0.07000
C1852       C  0.97356678  0.61575384  0.89369565    -0.27200
H1853       H  0.04591503  0.59178923  0.81583665     0.11700
H1854       H  0.04130545  0.62834332  0.77505946     0.12900
H1855       H  0.93236065  0.65923741  0.88969440     0.12000
H1856       H  0.92637043  0.69442749  0.84797176     0.11200
H1857       H  0.94486473  0.71554776  0.80087126     0.16600
H1858       H  0.01953751  0.67520656  0.75532087     0.12500
H1859       H  0.03019729  0.57311985  0.86536224     0.15400
H1860       H  0.95931401  0.61741452  0.91331295     0.15100
C1861       C  0.97354226  0.81693248  0.60264540    -0.17800
C1862       C  0.97426641  0.79375678  0.62383970    -0.19900
C1863       C  0.99077568  0.79697814  0.65043813     0.20700
C1864       C  0.00730980  0.82363335  0.65525049    -0.02800
C1865       C  0.00596075  0.84730616  0.63427056    -0.05900
C1866       C  0.98888098  0.84396155  0.60791671     0.21000
C1867       C  0.02117773  0.87454746  0.64002145     0.19200
C1868       C  0.03853309  0.87742894  0.66604999    -0.17400
C1869       C  0.04026508  0.85382900  0.68656056    -0.19600
C1870       C  0.02440600  0.82708510  0.68153309     0.20700
C1871       C  0.02421669  0.80437446  0.70309909    -0.32600
C1872       C  0.00584929  0.77885110  0.69984452     0.01400
C1873       C  0.98986933  0.77479984  0.67295772    -0.24000
C1874       C  0.98714069  0.86784990  0.58753446    -0.28500
C1875       C  0.00159865  0.89533902  0.59353419     0.07000
C1876       C  0.01860479  0.89849582  0.61979812    -0.27200
H1877       H  0.96043264  0.81396386  0.58241336     0.11700
H1878       H  0.96157582  0.77346763  0.61960697     0.12900
H1879       H  0.05052715  0.89805483  0.67070439     0.12000
H1880       H  0.05343916  0.85677798  0.70675113     0.11200
H1881       H  0.03690441  0.80755032  0.72358939     0.16600
H1882       H  0.97527391  0.75555935  0.67035112     0.12500
H1883       H  0.97409909  0.86524162  0.56718590     0.15400
H1884       H  0.03029057  0.91937945  0.62417559     0.15100
C1885       C  0.13113427  0.69403295  0.53100389    -0.17800
C1886       C  0.11023530  0.67055938  0.53067349    -0.19900
C1887       C  0.11389970  0.64601004  0.51122561     0.20700
C1888       C  0.13874485  0.64514592  0.49180119    -0.02800
C1889       C  0.15936648  0.66918939  0.49157745    -0.05900
C1890       C  0.15579740  0.69365259  0.51151537     0.21000
C1891       C  0.18396202  0.66835474  0.47187812     0.19200
C1892       C  0.18799921  0.64360064  0.45284322    -0.17400
C1893       C  0.16787653  0.61959995  0.45341916    -0.19600
C1894       C  0.14317898  0.62011828  0.47278708     0.20700
C1895       C  0.12281762  0.59610625  0.47340297    -0.32600
C1896       C  0.09762532  0.59720239  0.49213458     0.01400
C1897       C  0.09324200  0.62226547  0.51089208    -0.24000
C1898       C  0.17763977  0.71650876  0.51243448    -0.28500
C1899       C  0.20263088  0.71513592  0.49335788     0.07000
C1900       C  0.20491094  0.69161062  0.47245101    -0.27200
H1901       H  0.12805211  0.71243913  0.54658319     0.11700
H1902       H  0.09135290  0.67144702  0.54588268     0.12900
H1903       H  0.20701382  0.64259138  0.43781061     0.12000
H1904       H  0.17163938  0.60061879  0.43870370     0.11200
H1905       H  0.12607761  0.57696536  0.45873946     0.16600
H1906       H  0.07386754  0.62307197  0.52550190     0.12500
H1907       H  0.17616466  0.73420724  0.52906031     0.15400
H1908       H  0.22434545  0.69037733  0.45793737     0.15100
C1909       C  0.86764797  0.29612890  0.52315782    -0.17800
C1910       C  0.88803211  0.31994183  0.52495252    -0.19900
C1911       C  0.88475166  0.34524707  0.50653865     0.20700
C1912       C  0.86135208  0.34618304  0.48538235    -0.02800
C1913       C  0.84122762  0.32186033  0.48309100    -0.05900
C1914       C  0.84387567  0.29703660  0.50262721     0.21000
C1915       C  0.81760469  0.32306717  0.46222821     0.19200
C1916       C  0.81472063  0.34802763  0.44331122    -0.17400
C1917       C  0.83444057  0.37225443  0.44581864    -0.19600
C1918       C  0.85753965  0.37176656  0.46707707     0.20700
C1919       C  0.87679668  0.39643279  0.47044617    -0.32600
C1920       C  0.90025968  0.39548300  0.49131493     0.01400
C1921       C  0.90427704  0.36974550  0.50907825    -0.24000
C1922       C  0.82160325  0.27467329  0.50261477    -0.28500
C1923       C  0.79695284  0.27701092  0.48322164     0.07000
C1924       C  0.79606136  0.30031383  0.46203504    -0.27200
H1925       H  0.87012839  0.27727740  0.53825405     0.11700
H1926       H  0.90598651  0.31886398  0.54123090     0.12900
H1927       H  0.79663831  0.34921441  0.42718373     0.12000
H1928       H  0.83135704  0.39156067  0.43142135     0.11200
H1929       H  0.87409652  0.41599855  0.45628624     0.16600
H1930       H  0.92253505  0.36893898  0.52506442     0.12500
H1931       H  0.82216514  0.25697483  0.51924564     0.15400
H1932       H  0.77701801  0.30208910  0.44707860     0.15100
C1933       C  0.13101276  0.29615029  0.52496080    -0.17800
C1934       C  0.10953089  0.31899901  0.52582983    -0.19900
C1935       C  0.11326669  0.34519029  0.50872322     0.20700
C1936       C  0.13864954  0.34815685  0.49018093    -0.02800
C1937       C  0.15990050  0.32479864  0.48873955    -0.05900
C1938       C  0.15639880  0.29885848  0.50662357     0.21000
C1939       C  0.18502486  0.32776750  0.46991971     0.19200
C1940       C  0.18879524  0.35384637  0.45272725    -0.17400
C1941       C  0.16805582  0.37716200  0.45454825    -0.19600
C1942       C  0.14300446  0.37460635  0.47328725     0.20700
C1943       C  0.12220528  0.39800495  0.47529940    -0.32600
C1944       C  0.09658139  0.39502579  0.49324369     0.01400
C1945       C  0.09215723  0.36849088  0.50981368    -0.24000
C1946       C  0.17891817  0.27677442  0.50671567    -0.28500
C1947       C  0.20441639  0.28012989  0.48854686     0.07000
C1948       C  0.20661717  0.30516789  0.46946390    -0.27200
H1949       H  0.12785751  0.27643336  0.53878710     0.11700
H1950       H  0.09016231  0.31634586  0.54019185     0.12900
H1951       H  0.20809139  0.35643858  0.43825250     0.12000
H1952       H  0.17163471  0.39722492  0.44132238     0.11200
H1953       H  0.12551389  0.41824307  0.46223895     0.16600
H1954       H  0.07244571  0.36615280  0.52378269     0.12500
H1955       H  0.17733274  0.25791971  0.52194278     0.15400
H1956       H  0.22619418  0.30787279  0.45535478     0.15100
C1957       C  0.86819654  0.70051607  0.46357581    -0.17800
C1958       C  0.88930054  0.67733227  0.46157332    -0.19900
C1959       C  0.88534035  0.65052144  0.47770616     0.20700
C1960       C  0.86018771  0.64739399  0.49653282    -0.02800
C1961       C  0.83942784  0.67111167  0.49924858    -0.05900
C1962       C  0.84301238  0.69757089  0.48216706     0.21000
C1963       C  0.81453540  0.66788145  0.51834980     0.19200
C1964       C  0.81053504  0.64126379  0.53459498    -0.17400
C1965       C  0.83070194  0.61761209  0.53143436    -0.19600
C1966       C  0.85548204  0.62037116  0.51237479     0.20700
C1967       C  0.87567394  0.59658019  0.50910395    -0.32600
C1968       C  0.90119448  0.59962167  0.49104443     0.01400
C1969       C  0.90597638  0.62676409  0.47543692    -0.24000
C1970       C  0.82052558  0.71971170  0.48277933    -0.28500
C1971       C  0.79496765  0.71572570  0.50075478     0.07000
C1972       C  0.79309036  0.69056053  0.51963149    -0.27200
H1973       H  0.87142251  0.72062742  0.45034114     0.11700
H1974       H  0.90848737  0.68018562  0.44701093     0.12900
H1975       H  0.79138145  0.63845192  0.54921917     0.12000
H1976       H  0.82686048  0.59709245  0.54385244     0.11200
H1977       H  0.87207758  0.57597475  0.52148967     0.16600
H1978       H  0.92562979  0.62927486  0.46141765     0.12500
H1979       H  0.82190793  0.73879240  0.46781210     0.15400
H1980       H  0.77344820  0.68746061  0.53358016     0.15100
C1981       C  0.16866980  0.42465523  0.34020888    -0.17800
C1982       C  0.14816880  0.42862374  0.36354694    -0.19900
C1983       C  0.12981080  0.45407435  0.36429560     0.20700
C1984       C  0.13090032  0.47485736  0.34039476    -0.02800
C1985       C  0.15182930  0.47102831  0.31702540    -0.05900
C1986       C  0.17126645  0.44619202  0.31741598     0.21000
C1987       C  0.15440740  0.49287781  0.29422134     0.19200
C1988       C  0.13455362  0.51721411  0.29387115    -0.17400
C1989       C  0.11332232  0.52066392  0.31668964    -0.19600
C1990       C  0.11193580  0.50009564  0.34046798     0.20700
C1991       C  0.09251076  0.50469832  0.36471284    -0.32600
C1992       C  0.09262434  0.48500502  0.38929612     0.01400
C1993       C  0.11089249  0.45948726  0.38880627    -0.24000
C1994       C  0.19417431  0.44428577  0.29613684    -0.28500
C1995       C  0.19853591  0.46724904  0.27498547     0.07000
C1996       C  0.17790257  0.49092733  0.27334956    -0.27200
H1997       H  0.18327618  0.40530151  0.34059489     0.11700
H1998       H  0.14723365  0.41219873  0.38142039     0.12900
H1999       H  0.13596224  0.53400620  0.27638307     0.12000
H2000       H  0.09865447  0.53997059  0.31626744     0.11200
H2001       H  0.07776064  0.52397789  0.36486995     0.16600
H2002       H  0.11005206  0.44373599  0.40730866     0.12500
H2003       H  0.20993492  0.42586839  0.29724334     0.15400
H2004       H  0.18132271  0.50880845  0.25726039     0.15100
C2005       C  0.88199169  0.45997406  0.31900823    -0.17800
C2006       C  0.86159631  0.46207521  0.29528479    -0.19900
C2007       C  0.83981405  0.48468185  0.29509595     0.20700
C2008       C  0.83879629  0.50557814  0.31894952    -0.02800
C2009       C  0.85903684  0.50316376  0.34311251    -0.05900
C2010       C  0.88076196  0.48026748  0.34309615     0.21000
C2011       C  0.85723482  0.52339179  0.36748131     0.19200
C2012       C  0.83573890  0.54625480  0.36710804    -0.17400
C2013       C  0.81577323  0.54872108  0.34312126    -0.19600
C2014       C  0.81692026  0.52830366  0.31917366     0.20700
C2015       C  0.79558841  0.52927276  0.29626206    -0.32600
C2016       C  0.79534841  0.50748068  0.27347134     0.01400
C2017       C  0.81808419  0.48584316  0.27236242    -0.24000
C2018       C  0.90083841  0.47809216  0.36718125    -0.28500
C2019       C  0.89895165  0.49800511  0.39161079     0.07000
C2020       C  0.87697647  0.52042850  0.39175881    -0.27200
H2021       H  0.89852053  0.44224005  0.31869151     0.11700
H2022       H  0.86264635  0.44579977  0.27724576     0.12900
H2023       H  0.83419043  0.56207568  0.38551034     0.12000
H2024       H  0.79904939  0.56626719  0.34357661     0.11200
H2025       H  0.77784683  0.54580110  0.29720415     0.16600
H2026       H  0.81752031  0.46860952  0.25519464     0.12500
H2027       H  0.91788518  0.46082507  0.36705830     0.15400
H2028       H  0.87587093  0.53608786  0.41036004     0.15100
C2029       C  0.19094869  0.45635406  0.63402840    -0.17800
C2030       C  0.17025577  0.45814667  0.61056557    -0.19900
C2031       C  0.14397398  0.47495206  0.61390830     0.20700
C2032       C  0.13832829  0.48967853  0.64144723    -0.02800
C2033       C  0.15956305  0.48838236  0.66496631    -0.05900
C2034       C  0.18594961  0.47168272  0.66110800     0.21000
C2035       C  0.15484385  0.50453544  0.69190475     0.19200
C2036       C  0.12814238  0.52066071  0.69549014    -0.17400
C2037       C  0.10668568  0.52120383  0.67254638    -0.19600
C2038       C  0.11177535  0.50618595  0.64528380     0.20700
C2039       C  0.09100333  0.50775371  0.62166534    -0.32600
C2040       C  0.09679154  0.49386450  0.59380963     0.01400
C2041       C  0.12338700  0.47746138  0.59016197    -0.24000
C2042       C  0.20759475  0.47171055  0.68377940    -0.28500
C2043       C  0.20430890  0.48948437  0.70976348     0.07000
C2044       C  0.17746070  0.50534381  0.71405554    -0.27200
H2045       H  0.21123562  0.44351764  0.63072970     0.11700
H2046       H  0.17492464  0.44655236  0.58971280     0.12900
H2047       H  0.12395940  0.53310651  0.71594712     0.12000
H2048       H  0.08634214  0.53392876  0.67589766     0.11200
H2049       H  0.07052605  0.52035602  0.62476587     0.16600
H2050       H  0.12779549  0.46622380  0.56903922     0.12500
H2051       H  0.22820365  0.45941398  0.68025901     0.15400
H2052       H  0.17489950  0.51958139  0.73360200     0.15100
C2053       C  0.81205441  0.44837687  0.63809599    -0.17800
C2054       C  0.83192627  0.45117009  0.61405934    -0.19900
C2055       C  0.85556193  0.47184438  0.61539530     0.20700
C2056       C  0.85949310  0.48954283  0.64144110    -0.02800
C2057       C  0.83912895  0.48707292  0.66550794    -0.05900
C2058       C  0.81526537  0.46650492  0.66366874     0.21000
C2059       C  0.84205716  0.50586618  0.69092093     0.19200
C2060       C  0.86622229  0.52592781  0.69257403    -0.17400
C2061       C  0.88685470  0.52786954  0.66902167    -0.19600
C2062       C  0.88345635  0.51006491  0.64323794     0.20700
C2063       C  0.90355914  0.51242373  0.61921100    -0.32600
C2064       C  0.89960130  0.49505375  0.59315218     0.01400
C2065       C  0.87538906  0.47506318  0.59121799    -0.24000
C2066       C  0.79410784  0.46547445  0.68671587    -0.28500
C2067       C  0.79537734  0.48576711  0.71092028     0.07000
C2068       C  0.81992518  0.50535799  0.71337809    -0.27200
H2069       H  0.79373618  0.43252437  0.63638682     0.11700
H2070       H  0.82870323  0.43728252  0.59435209     0.12900
H2071       H  0.86895004  0.54040942  0.71191910     0.12000
H2072       H  0.90520929  0.54367686  0.67075793     0.11200
H2073       H  0.92223657  0.52790902  0.62065648     0.16600
H2074       H  0.87257645  0.46136850  0.57128753     0.12500
H2075       H  0.77533413  0.45015875  0.68480117     0.15400
H2076       H  0.82084229  0.52141218  0.73162191     0.15100
C2077       C  0.03257568  0.68774967  0.34706740    -0.17800
C2078       C  0.03426771  0.66550633  0.36917651    -0.19900
C2079       C  0.01402012  0.64139673  0.36925473     0.20700
C2080       C  0.99170997  0.63981493  0.34690533    -0.02800
C2081       C  0.98956169  0.66267802  0.32501076    -0.05900
C2082       C  0.01030113  0.68658112  0.32488706     0.21000
C2083       C  0.96662506  0.66163214  0.30331648     0.19200
C2084       C  0.94628508  0.63760162  0.30345773    -0.17400
C2085       C  0.94882421  0.61461673  0.32468417    -0.19600
C2086       C  0.97144840  0.61548088  0.34650001     0.20700
C2087       C  0.97396714  0.59265285  0.36809711    -0.32600
C2088       C  0.99573143  0.59443237  0.39080824     0.01400
C2089       C  0.01556974  0.61895207  0.39134126    -0.24000
C2090       C  0.00837083  0.70887697  0.30264824    -0.28500
C2091       C  0.98525073  0.70831671  0.28117295     0.07000
C2092       C  0.96435204  0.68464683  0.28193324    -0.27200
H2093       H  0.04858774  0.70601076  0.34744956     0.11700
H2094       H  0.05153257  0.66709300  0.38615677     0.12900
H2095       H  0.92849621  0.63647357  0.28699586     0.12000
H2096       H  0.93293694  0.59624614  0.32416152     0.11200
H2097       H  0.95842258  0.57395634  0.36783540     0.16600
H2098       H  0.03241279  0.62033364  0.40878718     0.12500
H2099       H  0.02486228  0.72667244  0.30205215     0.15400
H2100       H  0.94620429  0.68423018  0.26585092     0.15100
C2101       C  0.96792589  0.35672037  0.68906445    -0.17800
C2102       C  0.96728562  0.37963678  0.66764547    -0.19900
C2103       C  0.98681462  0.37906394  0.64300328     0.20700
C2104       C  0.00791495  0.35568242  0.64047197    -0.02800
C2105       C  0.00906522  0.33295792  0.66254057    -0.05900
C2106       C  0.98848019  0.33310658  0.68653516     0.21000
C2107       C  0.03043678  0.30984214  0.66030036     0.19200
C2108       C  0.05059783  0.30975161  0.63613784    -0.17400
C2109       C  0.04897222  0.33183121  0.61386663    -0.19600
C2110       C  0.02747824  0.35469227  0.61562914     0.20700
C2111       C  0.02488790  0.37633057  0.59285136    -0.32600
C2112       C  0.00364378  0.39948139  0.59509685     0.01400
C2113       C  0.98520981  0.40111322  0.62057793    -0.24000
C2114       C  0.98859970  0.30952627  0.70740018    -0.28500
C2115       C  0.01004376  0.28653141  0.70562446     0.07000
C2116       C  0.03112101  0.28714385  0.68212227    -0.27200
H2117       H  0.95222653  0.35739874  0.70756363     0.11700
H2118       H  0.95107985  0.39751078  0.67003721     0.12900
H2119       H  0.06727961  0.29226971  0.63416176     0.12000
H2120       H  0.06440321  0.33090716  0.59514700     0.11200
H2121       H  0.03954785  0.37536999  0.57349879     0.16600
H2122       H  0.96894028  0.41902067  0.62242238     0.12500
H2123       H  0.97196492  0.30905485  0.72503864     0.15400
H2124       H  0.04811724  0.26992400  0.68085174     0.15100
C2125       C  0.94829537  0.64462860  0.67755534    -0.17800
C2126       C  0.94921908  0.62263503  0.65507391    -0.19900
C2127       C  0.97362667  0.62092424  0.63531522     0.20700
C2128       C  0.99742752  0.64155251  0.63836628    -0.02800
C2129       C  0.99658937  0.66366605  0.66126461    -0.05900
C2130       C  0.97183544  0.66527103  0.68086086     0.21000
C2131       C  0.02044026  0.68422030  0.66444293     0.19200
C2132       C  0.04504142  0.68220991  0.64495370    -0.17400
C2133       C  0.04579324  0.66046406  0.62218942    -0.19600
C2134       C  0.02199906  0.64017226  0.61848233     0.20700
C2135       C  0.02227816  0.61860377  0.59527022    -0.32600
C2136       C  0.99864137  0.59792783  0.59218894     0.01400
C2137       C  0.97460318  0.59902820  0.61254127    -0.24000
C2138       C  0.97101913  0.68750818  0.70331781    -0.28500
C2139       C  0.99456502  0.70829982  0.70648251     0.07000
C2140       C  0.01924362  0.70640767  0.68696956    -0.27200
H2141       H  0.92911593  0.64549265  0.69237929     0.11700
H2142       H  0.93073648  0.60701053  0.65305936     0.12900
H2143       H  0.06365981  0.69763392  0.64717412     0.12000
H2144       H  0.06497459  0.65961337  0.60736515     0.11200
H2145       H  0.04105572  0.61753893  0.57992139     0.16600
H2146       H  0.95642739  0.58304212  0.61031419     0.12500
H2147       H  0.95193043  0.68891065  0.71822325     0.15400
H2148       H  0.03758387  0.72210957  0.68955374     0.15100
C2149       C  0.95799255  0.32973140  0.11971460    -0.17800
C2150       C  0.95743327  0.30939308  0.14355690    -0.19900
C2151       C  0.97792811  0.31205722  0.16725256     0.20700
C2152       C  0.99865406  0.33588085  0.16749067    -0.02800
C2153       C  0.99889753  0.35670719  0.14363537    -0.05900
C2154       C  0.97881281  0.35330292  0.11936732     0.21000
C2155       C  0.01957022  0.38060061  0.14382273     0.19200
C2156       C  0.03982898  0.38337482  0.16772366    -0.17400
C2157       C  0.04013499  0.36227956  0.19095976    -0.19600
C2158       C  0.01976540  0.33830977  0.19101464     0.20700
C2159       C  0.02100385  0.31594759  0.21326920    -0.32600
C2160       C  0.00124026  0.29145988  0.21215748     0.01400
C2161       C  0.97906772  0.29037516  0.18984003    -0.24000
C2162       C  0.97996202  0.37348655  0.09519980    -0.28500
C2163       C  0.00025260  0.39757481  0.09551620     0.07000
C2164       C  0.01975671  0.40115633  0.12001387    -0.27200
H2165       H  0.94227600  0.32688849  0.10143160     0.11700
H2166       H  0.94140601  0.29114140  0.14311527     0.12900
H2167       H  0.05575757  0.40162826  0.16821684     0.12000
H2168       H  0.05649213  0.36457233  0.20874547     0.11200
H2169       H  0.03845725  0.31651766  0.23013690     0.16600
H2170       H  0.96396616  0.27132882  0.18891645     0.12500
H2171       H  0.96462611  0.37094257  0.07652314     0.15400
H2172       H  0.03541331  0.41974244  0.12025817     0.15100
C2173       C  0.96889266  0.17438427  0.38109371    -0.17800
C2174       C  0.97268092  0.19744140  0.36003380    -0.19900
C2175       C  0.99441244  0.19503066  0.33740067     0.20700
C2176       C  0.01303849  0.16947571  0.33660415    -0.02800
C2177       C  0.00861592  0.14587667  0.35719282    -0.05900
C2178       C  0.98637431  0.14825472  0.37951256     0.21000
C2179       C  0.02611065  0.11961900  0.35499480     0.19200
C2180       C  0.04873212  0.11772756  0.33334596    -0.17400
C2181       C  0.05348998  0.14129712  0.31337232    -0.19600
C2182       C  0.03538809  0.16690660  0.31446446     0.20700
C2183       C  0.03819769  0.18913192  0.29265884    -0.32600
C2184       C  0.01808321  0.21324037  0.29153942     0.01400
C2185       C  0.99684409  0.21674788  0.31458571    -0.24000
C2186       C  0.98206067  0.12437310  0.39966390    -0.28500
C2187       C  0.99901994  0.09787950  0.39692279     0.07000
C2188       C  0.02079581  0.09565684  0.37447355    -0.27200
H2189       H  0.95183553  0.17669680  0.39820263     0.11700
H2190       H  0.95832233  0.21695327  0.36118299     0.12900
H2191       H  0.06255975  0.09786830  0.33166074     0.12000
H2192       H  0.07077019  0.13910974  0.29647615     0.11200
H2193       H  0.05473481  0.18651240  0.27505128     0.16600
H2194       H  0.98100397  0.23507881  0.31365637     0.12500
H2195       H  0.96546699  0.12624194  0.41730386     0.15400
H2196       H  0.03440040  0.07560237  0.37290430     0.15100
C2197       C  0.96266807  0.34927466  0.30270292    -0.17800
C2198       C  0.96123723  0.37145468  0.32491613    -0.19900
C2199       C  0.98158823  0.37151262  0.34888863     0.20700
C2200       C  0.00344519  0.34877792  0.35064948    -0.02800
C2201       C  0.00515323  0.32660959  0.32795807    -0.05900
C2202       C  0.98464613  0.32688335  0.30388386     0.21000
C2203       C  0.02746947  0.30433064  0.32926502     0.19200
C2204       C  0.04756016  0.30410969  0.35347667    -0.17400
C2205       C  0.04563168  0.32582467  0.37615474    -0.19600
C2206       C  0.02373013  0.34833432  0.37492375     0.20700
C2207       C  0.02189743  0.37055850  0.39732546    -0.32600
C2208       C  0.00061621  0.39370907  0.39527839     0.01400
C2209       C  0.98058448  0.39401990  0.37097883    -0.24000
C2210       C  0.98646346  0.30481654  0.28141684    -0.28500
C2211       C  0.00885300  0.28272775  0.28230653     0.07000
C2212       C  0.02936890  0.28278604  0.30629211    -0.27200
H2213       H  0.94671329  0.34979486  0.28442488     0.11700
H2214       H  0.94421773  0.38863875  0.32330248     0.12900
H2215       H  0.06478888  0.28711792  0.35488273     0.12000
H2216       H  0.06143549  0.32514199  0.39456032     0.11200
H2217       H  0.03748867  0.37032857  0.41595170     0.16600
H2218       H  0.96399045  0.41165568  0.36948713     0.12500
H2219       H  0.97025796  0.30462816  0.26337031     0.15400
H2220       H  0.04689478  0.26606698  0.30696910     0.15100
loop_ 
_geom_bond_atom_site_label_1 
_geom_bond_atom_site_label_2 
_geom_bond_distance 
_geom_bond_site_symmetry_2 
_ccdc_geom_bond_type 
N1            C5   1.364       .  A
N1            C2   1.363       .  A
N1         C2211   1.448       .  S
C2            C3   1.383       .  A
C2         C2184   1.482       .  S
C3            C4   1.364       .  A
C3            H6   1.083       .  S
C4            C5   1.381       .  A
C4            H7   1.083       .  S
C5         C2160   1.478       .  S
O8          Zr44   2.457       .  S
O8           C19   1.295       .  A
O9          Zr43   2.446       .  S
O9           C20   1.293   1_655  A
O10         Zr16   2.433   1_455  S
O10          C21   1.291       .  A
O11         Zr16   2.419       .  S
O11          C22   1.289       .  A
O12         Zr46   2.462       .  S
O12          C22   1.297       .  A
O13         Zr45   2.452       .  S
O13          C21   1.295       .  A
O14         Zr16   2.449   1_455  S
O14          C20   1.293       .  A
O15         Zr16   2.446   1_455  S
O15          C19   1.293   1_455  A
Zr16         O17   2.345       .  S
Zr16         O18   2.333   1_655  S
Zr16         O26   2.353       .  S
Zr16         O24   2.330   1_655  S
O17         Zr43   2.340       .  S
O17         Zr46   2.356       .  S
O18         Zr44   2.340   1_455  S
O18         Zr45   2.342       .  S
C19        C2208   1.483   1_655  S
C20        C2112   1.480       .  S
C21        C1944   1.479       .  S
C22        C1920   1.473       .  S
H23          O24   0.966       .  S
O24         Zr43   2.341   1_455  S
O24         Zr45   2.344       .  S
H25          O26   0.966       .  S
O26         Zr44   2.332       .  S
O26         Zr46   2.349       .  S
O27         Zr43   2.443       .  S
O27          C50   1.292       .  A
O28         Zr44   2.451       .  S
O28          C51   1.294       .  A
O29         Zr45   2.473       .  S
O29          C52   1.300       .  A
O30         Zr46   2.444       .  S
O30          C53   1.294       .  A
O31         Zr46   2.456       .  S
O31          C54   1.295       .  A
O32         Zr45   2.470       .  S
O32          C55   1.298       .  A
O33         Zr47   2.424   1_455  S
O33          C56   1.290       .  A
O34         Zr47   2.432       .  S
O34          C57   1.291       .  A
O35         Zr45   2.462       .  S
O35          C56   1.297       .  A
O36         Zr46   2.472       .  S
O36          C57   1.300       .  A
O37         Zr43   2.433   1_455  S
O37          C52   1.292       .  A
O38         Zr44   2.404   1_455  S
O38          C55   1.286       .  A
O39         Zr44   2.425       .  S
O39          C54   1.289       .  A
O40         Zr43   2.433       .  S
O40          C53   1.291       .  A
O41         Zr47   2.472   1_455  S
O41          C50   1.297   1_455  A
O42         Zr47   2.448       .  S
O42          C51   1.294       .  A
Zr43         O49   2.344   1_655  S
Zr43         O61   2.342       .  S
Zr44         O48   2.334       .  S
Zr44         O59   2.353   1_655  S
Zr45         O49   2.353       .  S
Zr45         O59   2.352       .  S
Zr46         O48   2.338       .  S
Zr46         O61   2.353       .  S
Zr47         O48   2.347       .  S
Zr47         O49   2.339   1_655  S
Zr47         O61   2.345       .  S
Zr47         O59   2.351   1_655  S
C50        C2136   1.486       .  S
C51        C2088   1.481       .  S
C52        C2040   1.488       .  S
C53        C2064   1.473       .  S
C54        C2019   1.474       .  S
C55        C1992   1.468       .  S
C56        C1896   1.477       .  S
C57        C1968   1.485       .  S
H58          O59   0.967       .  S
H60          O61   0.966       .  S
N62          C66   1.368       .  A
N62          C63   1.366       .  A
N62        C2139   1.449       .  S
C63          C64   1.381       .  A
C63        C1848   1.481       .  S
C64          C65   1.361       .  A
C64          H67   1.083       .  S
C65          C66   1.385       .  A
C65          H68   1.082       .  S
C66        C1872   1.488   1_655  S
N69          C73   1.364       .  A
N69          C70   1.362       .  A
N69        C2115   1.449       .  S
C70          C71   1.381       .  A
C70        C1827   1.474       .  S
C71          C72   1.362       .  A
C71          H74   1.083       .  S
C72          C73   1.383       .  A
C72          H75   1.083       .  S
C73        C1803   1.478       .  S
N76          C80   1.368       .  A
N76          C77   1.371       .  A
N76        C2091   1.451       .  S
C77          C78   1.383       .  A
C77        C1752   1.493       .  S
C78          C79   1.362       .  A
C78          H81   1.082       .  S
C79          C80   1.382       .  A
C79          H82   1.083       .  S
C80        C1776   1.488       .  S
O83        Zr119   2.463   1_545  S
O83          C94   1.298       .  A
O84        Zr118   2.457   1_445  S
O84          C95   1.296       .  A
O85         Zr91   2.438       .  S
O85          C96   1.291       .  A
O86         Zr91   2.454   1_455  S
O86          C97   1.294       .  A
O87        Zr121   2.443   1_545  S
O87          C97   1.293       .  A
O88        Zr120   2.447   1_545  S
O88          C96   1.293       .  A
O89         Zr91   2.415       .  S
O89          C95   1.287   1_655  A
O90         Zr91   2.416       .  S
O90          C94   1.287       .  A
Zr91         O92   2.345   1_655  S
Zr91         O93   2.338       .  S
Zr91        O101   2.338   1_655  S
Zr91         O99   2.339       .  S
O92        Zr118   2.348   1_445  S
O92        Zr121   2.337   1_545  S
O93        Zr119   2.347   1_545  S
O93        Zr120   2.340   1_545  S
C94        C2187   1.473       .  S
C95        C1824   1.466       .  S
C96        C1704   1.475       .  S
C97        C1731   1.485       .  S
H98          O99   0.967       .  S
O99        Zr118   2.350   1_545  S
O99        Zr120   2.341   1_545  S
H100        O101   0.966       .  S
O101       Zr119   2.347   1_445  S
O101       Zr121   2.344   1_545  S
O102       Zr118   2.467   1_455  S
O102        C125   1.298       .  A
O103       Zr119   2.461       .  S
O103        C126   1.297       .  A
O104       Zr120   2.417       .  S
O104        C127   1.289       .  A
O105       Zr121   2.424       .  S
O105        C128   1.289       .  A
O106       Zr121   2.411       .  S
O106        C129   1.287       .  A
O107       Zr120   2.425       .  S
O107        C130   1.290       .  A
O108       Zr122   2.439       .  S
O108        C131   1.291       .  A
O109       Zr122   2.443   1_455  S
O109        C132   1.292       .  A
O110       Zr120   2.444       .  S
O110        C131   1.293       .  A
O111       Zr121   2.447       .  S
O111        C132   1.293       .  A
O112       Zr118   2.472       .  S
O112        C127   1.299       .  A
O113       Zr119   2.469       .  S
O113        C130   1.299       .  A
O114       Zr119   2.465   1_455  S
O114        C129   1.298       .  A
O115       Zr118   2.473   1_455  S
O115        C128   1.299       .  A
O116       Zr122   2.415       .  S
O116        C125   1.288   1_655  A
O117       Zr122   2.419       .  S
O117        C126   1.289       .  A
Zr118       O124   2.352       .  S
Zr118       O136   2.345   1_655  S
Zr119       O123   2.347   1_655  S
Zr119       O134   2.349       .  S
Zr120       O124   2.340       .  S
Zr120       O134   2.340       .  S
Zr121       O123   2.338       .  S
Zr121       O136   2.334       .  S
Zr122       O123   2.336   1_655  S
Zr122       O124   2.340       .  S
Zr122       O136   2.339   1_655  S
Zr122       O134   2.338       .  S
C125       C1875   1.478       .  S
C126       C1779   1.478       .  S
C127       C1560   1.479       .  S
C128       C1587   1.483       .  S
C129       C1608   1.472       .  S
C130       C1635   1.479       .  S
C131       C1680   1.476       .  S
C132       C1656   1.480       .  S
H133        O134   0.966       .  S
H135        O136   0.967       .  S
N137        C141   1.365       .  A
N137        C138   1.368       .  A
N137       C1728   1.453       .  S
C138        C139   1.385       .  A
C138       C1947   1.486       .  S
C139        C140   1.362       .  A
C139        H142   1.082       .  S
C140        C141   1.378       .  A
C140        H143   1.083       .  S
C141       C1536   1.476       .  S
N144        C148   1.364       .  A
N144        C145   1.363       .  A
N144       C1707   1.447       .  S
C145        C146   1.382       .  A
C145       C1923   1.481       .  S
C146        C147   1.366       .  A
C146        H149   1.083       .  S
C147        C148   1.381       .  A
C147        H150   1.082       .  S
C148       C1512   1.482       .  S
N151        C155   1.366       .  A
N151        C152   1.367       .  A
N151       C1683   1.450       .  S
C152        C153   1.382       .  A
C152       C1491   1.482       .  S
C153        C154   1.361       .  A
C153        H156   1.083       .  S
C154        C155   1.382       .  A
C154        H157   1.082       .  S
C155       C1971   1.483       .  S
N158        C162   1.366       .  A
N158        C159   1.367       .  A
N158       C1659   1.451       .  S
C159        C160   1.382       .  A
C159       C1899   1.480       .  S
C160        C161   1.360       .  A
C160        H163   1.083       .  S
C161        C162   1.381       .  A
C161        H164   1.083       .  S
C162       C1464   1.480       .  S
N165        C169   1.364       .  A
N165        C166   1.367       .  A
N165       C1440   1.450       .  S
C166        C167   1.381       .  A
C166       C1632   1.481       .  S
C167        C168   1.363       .  A
C167        H170   1.083       .  S
C168        C169   1.383       .  A
C168        H171   1.083       .  S
C169       C1416   1.483       .  S
O172       Zr208   2.457       .  S
O172        C183   1.296       .  A
O173       Zr207   2.441       .  S
O173        C184   1.293       .  A
O174       Zr180   2.440       .  S
O174        C185   1.292       .  A
O175       Zr180   2.469       .  S
O175        C186   1.297       .  A
O176       Zr210   2.440       .  S
O176        C186   1.292       .  A
O177       Zr209   2.458       .  S
O177        C185   1.295       .  A
O178       Zr180   2.417       .  S
O178        C184   1.288       .  A
O179       Zr180   2.424   1_545  S
O179        C183   1.289       .  A
Zr180       O181   2.338       .  S
Zr180       O182   2.339   1_565  S
Zr180       O190   2.341   1_565  S
Zr180       O188   2.343       .  S
O181       Zr207   2.342       .  S
O181       Zr210   2.335       .  S
O182       Zr208   2.342       .  S
O182       Zr209   2.336   1_545  S
C183       C1539   1.468       .  S
C184       C1467   1.463       .  S
C185       C1347   1.485       .  S
C186       C1395   1.488       .  S
H187        O188   0.966       .  S
O188       Zr207   2.349       .  S
O188       Zr209   2.340       .  S
H189        O190   0.967       .  S
O190       Zr208   2.357       .  S
O190       Zr210   2.347   1_545  S
O191       Zr207   2.451       .  S
O191        C214   1.295       .  A
O192       Zr208   2.463       .  S
O192        C215   1.297       .  A
O193       Zr209   2.405       .  S
O193        C216   1.286       .  A
O194       Zr210   2.435       .  S
O194        C217   1.291       .  A
O195       Zr210   2.438   1_545  S
O195        C218   1.292       .  A
O196       Zr209   2.411   1_545  S
O196        C219   1.287       .  A
O197       Zr211   2.448       .  S
O197        C220   1.293       .  A
O198       Zr211   2.440       .  S
O198        C221   1.292       .  A
O199       Zr209   2.456       .  S
O199        C220   1.295       .  A
O200       Zr210   2.441       .  S
O200        C221   1.292       .  A
O201       Zr207   2.452       .  S
O201        C216   1.295       .  A
O202       Zr208   2.471       .  S
O202        C219   1.299       .  A
O203       Zr208   2.459       .  S
O203        C218   1.297       .  A
O204       Zr207   2.467       .  S
O204        C217   1.297       .  A
O205       Zr211   2.428       .  S
O205        C214   1.290       .  A
O206       Zr211   2.426   1_545  S
O206        C215   1.289       .  A
Zr207       O213   2.342       .  S
Zr207       O225   2.346       .  S
Zr208       O212   2.346       .  S
Zr208       O223   2.350       .  S
Zr209       O213   2.335       .  S
Zr209       O223   2.343   1_565  S
Zr210       O212   2.345   1_565  S
Zr210       O225   2.344       .  S
Zr211       O212   2.339   1_565  S
Zr211       O213   2.335       .  S
Zr211       O225   2.347       .  S
Zr211       O223   2.343   1_565  S
C214       C1488   1.472       .  S
C215       C1515   1.474       .  S
C216       C1272   1.467       .  S
C217       C1320   1.484       .  S
C218       C1299   1.478       .  S
C219       C1248   1.472       .  S
C220       C1443   1.486       .  S
C221       C1368   1.473       .  S
H222        O223   0.967       .  S
H224        O225   0.967       .  S
N226        C230   1.370       .  A
N226        C227   1.371       .  A
N226       C1392   1.452       .  S
C227        C228   1.385       .  A
C227       C1224   1.495       .  S
C228        C229   1.360       .  A
C228        H231   1.082       .  S
C229        C230   1.380       .  A
C229        H232   1.083       .  S
C230       C1584   1.487       .  S
N233        C237   1.362       .  A
N233        C234   1.365       .  A
N233       C1371   1.445       .  S
C234        C235   1.383       .  A
C234       C1563   1.485       .  S
C235        C236   1.367       .  A
C235        H238   1.082       .  S
C236        C237   1.380       .  A
C236        H239   1.082       .  S
C237       C1200   1.482       .  S
N240        C244   1.368   1_545  A
N240        C241   1.367       .  A
N240       C1344   1.451       .  S
C241        C242   1.383       .  A
C241       C1176   1.485       .  S
C242        C243   1.361       .  A
C242        H245   1.083       .  S
C243        C244   1.381   1_545  A
C243        H246   1.083   1_545  S
C244       C1611   1.482       .  S
O247       Zr283   2.462   1_554  S
O247        C258   1.297   1_565  A
O248       Zr282   2.459   1_554  S
O248        C259   1.297       .  A
O249       Zr255   2.457   1_545  S
O249        C260   1.296       .  A
O250       Zr255   2.451       .  S
O250        C261   1.294       .  A
O251       Zr285   2.443   1_554  S
O251        C261   1.293       .  A
O252       Zr284   2.425   1_554  S
O252        C260   1.289       .  A
O253       Zr255   2.422       .  S
O253        C259   1.288       .  A
O254       Zr255   2.419   1_545  S
O254        C258   1.288       .  A
Zr255       O256   2.337       .  S
Zr255       O257   2.336   1_565  S
Zr255       O265   2.342       .  S
Zr255       O263   2.340   1_565  S
O256       Zr282   2.340   1_554  S
O256       Zr285   2.340   1_554  S
O257       Zr283   2.342   1_544  S
O257       Zr284   2.341   1_554  S
C258       C1419   1.473   1_545  S
C259       C1179   1.474       .  S
C260       C1152   1.479       .  S
C261       C1131   1.477       .  S
H262        O263   0.967       .  S
O263       Zr282   2.342   1_544  S
O263       Zr284   2.342   1_554  S
H264        O265   0.966       .  S
O265       Zr283   2.343   1_554  S
O265       Zr285   2.343   1_554  S
O266       Zr282   2.460       .  S
O266        C289   1.297       .  A
O267       Zr283   2.470       .  S
O267        C290   1.299       .  A
O268       Zr284   2.429       .  S
O268        C291   1.289       .  A
O269       Zr285   2.441   1_554  S
O269        C292   1.292       .  A
O270       Zr285   2.437       .  S
O270        C293   1.292       .  A
O271       Zr284   2.422       .  S
O271        C294   1.289       .  A
O272       Zr286   2.445   1_545  S
O272        C295   1.292       .  A
O273       Zr286   2.460       .  S
O273        C296   1.295       .  A
O274       Zr284   2.444       .  S
O274        C295   1.293       .  A
O275       Zr285   2.458       .  S
O275        C296   1.295       .  A
O276       Zr282   2.448   1_545  S
O276        C291   1.294       .  A
O277       Zr283   2.448   1_545  S
O277        C294   1.295       .  A
O278       Zr283   2.450       .  S
O278        C293   1.294       .  A
O279       Zr282   2.429       .  S
O279        C292   1.291   1_556  A
O280       Zr286   2.430       .  S
O280        C289   1.290       .  A
O281       Zr286   2.413       .  S
O281        C290   1.287       .  A
Zr282       O288   2.343   1_565  S
Zr282       O300   2.350       .  S
Zr283       O287   2.349       .  S
Zr283       O298   2.350   1_565  S
Zr284       O288   2.335       .  S
Zr284       O298   2.342       .  S
Zr285       O287   2.339       .  S
Zr285       O300   2.345       .  S
Zr286       O287   2.345       .  S
Zr286       O288   2.342   1_565  S
Zr286       O300   2.341       .  S
Zr286       O298   2.346   1_565  S
C289       C1227   1.480       .  S
C290       C1203   1.470       .  S
C291       C1059   1.468       .  S
C292       C1008   1.467       .  S
C293       C1032   1.477       .  S
C294        C984   1.471       .  S
C295       C1083   1.477       .  S
C296       C1104   1.485       .  S
H297        O298   0.966       .  S
H299        O300   0.967       .  S
N301        C305   1.365       .  A
N301        C302   1.364       .  A
N301       C1155   1.452       .  S
C302        C303   1.381       .  A
C302        C960   1.472       .  S
C303        C304   1.360       .  A
C303        H306   1.083       .  S
C304        C305   1.381       .  A
C304        H307   1.083       .  S
C305       C1251   1.477       .  S
N308        C312   1.362       .  A
N308        C309   1.364       .  A
N308       C1128   1.447       .  S
C309        C310   1.383       .  A
C309        C939   1.481       .  S
C310        C311   1.362       .  A
C310        H313   1.082       .  S
C311        C312   1.382       .  A
C311        H314   1.083       .  S
C312       C1275   1.476       .  S
N315        C319   1.366       .  A
N315        C316   1.363       .  A
N315       C1107   1.444       .  S
C316        C317   1.381       .  A
C316        C912   1.482       .  S
C317        C318   1.367       .  A
C317        H320   1.083       .  S
C318        C319   1.385       .  A
C318        H321   1.082       .  S
C319       C1323   1.490       .  S
N322        C326   1.363       .  A
N322        C323   1.362       .  A
N322       C1080   1.444       .  S
C323        C324   1.380       .  A
C323        C888   1.478       .  S
C324        C325   1.365       .  A
C324        H327   1.083       .  S
C325        C326   1.383       .  A
C325        H328   1.082       .  S
C326       C1296   1.483       .  S
O329       Zr365   2.455   1_654  S
O329        C340   1.295   1_655  A
O330       Zr364   2.465   1_554  S
O330        C341   1.297       .  A
O331       Zr337   2.446       .  S
O331        C342   1.293       .  A
O332       Zr337   2.435   1_655  S
O332        C343   1.291       .  A
O333       Zr367   2.446   1_554  S
O333        C343   1.293       .  A
O334       Zr366   2.445   1_554  S
O334        C342   1.293       .  A
O335       Zr337   2.433   1_655  S
O335        C341   1.291       .  A
O336       Zr337   2.436       .  S
O336        C340   1.291       .  A
Zr337       O338   2.342   1_455  S
Zr337       O339   2.332       .  S
Zr337       O347   2.341   1_455  S
Zr337       O345   2.340       .  S
O338       Zr364   2.338   1_554  S
O338       Zr367   2.336   1_554  S
O339       Zr365   2.345   1_554  S
O339       Zr366   2.341   1_554  S
C340       C2163   1.477       .  S
C341       C1755   1.484       .  S
C342        C840   1.481       .  S
C343        C864   1.471       .  S
H344        O345   0.967       .  S
O345       Zr364   2.356   1_454  S
O345       Zr366   2.350   1_554  S
H346        O347   0.966       .  S
O347       Zr365   2.341   1_654  S
O347       Zr367   2.341   1_554  S
O348       Zr364   2.454       .  S
O348        C371   1.296       .  A
O349       Zr365   2.458       .  S
O349        C372   1.296       .  A
O350       Zr366   2.424       .  S
O350        C373   1.290       .  A
O351       Zr367   2.417       .  S
O351        C374   1.288       .  A
O352       Zr367   2.412       .  S
O352        C375   1.287       .  A
O353       Zr366   2.425       .  S
O353        C376   1.290       .  A
O354       Zr368   2.463       .  S
O354        C377   1.295       .  A
O355       Zr368   2.446   1_655  S
O355        C378   1.293       .  A
O356       Zr366   2.452       .  S
O356        C377   1.294       .  A
O357       Zr367   2.460       .  S
O357        C378   1.296       .  A
O358       Zr364   2.467   1_455  S
O358        C373   1.298       .  A
O359       Zr365   2.456       .  S
O359        C376   1.297       .  A
O360       Zr365   2.452   1_655  S
O360        C375   1.295       .  A
O361       Zr364   2.474       .  S
O361        C374   1.299       .  A
O362       Zr368   2.425       .  S
O362        C371   1.290   1_455  A
O363       Zr368   2.407       .  S
O363        C372   1.287       .  A
Zr364       O370   2.360   1_655  S
Zr364       O382   2.344       .  S
Zr365       O369   2.346   1_455  S
Zr365       O380   2.349       .  S
Zr366       O370   2.341       .  S
Zr366       O380   2.339       .  S
Zr367       O369   2.342       .  S
Zr367       O382   2.336       .  S
Zr368       O369   2.348   1_455  S
Zr368       O370   2.341       .  S
Zr368       O382   2.344   1_455  S
Zr368       O380   2.335       .  S
C371       C1851   1.472       .  S
C372       C1800   1.470       .  S
C373        C744   1.476       .  S
C374        C696   1.480       .  S
C375        C720   1.467       .  S
C376        C768   1.476       .  S
C377        C816   1.492       .  S
C378        C792   1.485       .  S
H379        O380   0.967       .  S
H381        O382   0.966       .  S
N383        C387   1.361       .  A
N383        C384   1.360       .  A
N383        C867   1.446       .  S
C384        C385   1.381       .  A
C384        C675   1.475       .  S
C385        C386   1.366       .  A
C385        H388   1.082       .  S
C386        C387   1.382       .  A
C386        H389   1.082       .  S
C387       C2016   1.476       .  S
N390        C394   1.367       .  A
N390        C391   1.368       .  A
N390        C843   1.452       .  S
C391        C392   1.384       .  A
C391        C651   1.486       .  S
C392        C393   1.364       .  A
C392        H395   1.083       .  S
C393        C394   1.380       .  A
C393        H396   1.082       .  S
C394       C1995   1.483       .  S
N397        C401   1.370       .  A
N397        C398   1.372       .  A
N397        C819   1.455       .  S
C398        C399   1.385       .  A
C398       C2043   1.492       .  S
C399        C400   1.362       .  A
C399        H402   1.083       .  S
C400        C401   1.379       .  A
C400        H403   1.083       .  S
C401        C624   1.485       .  S
N404        C408   1.369       .  A
N404        C405   1.369       .  A
N404        C795   1.452       .  S
C405        C406   1.383       .  A
C405        C600   1.487       .  S
C406        C407   1.360       .  A
C406        H409   1.083       .  S
C407        C408   1.381       .  A
C407        H410   1.083       .  S
C408       C2067   1.486       .  S
N411        C415   1.369       .  A
N411        C412   1.366       .  A
N411        C576   1.454       .  S
C412        C413   1.380       .  A
C412       C1056   1.480       .  S
C413        C414   1.363       .  A
C413        H416   1.083       .  S
C414        C415   1.384       .  A
C414        H417   1.083       .  S
C415        C771   1.487   1_556  S
O418       Zr454   2.432       .  S
O418        C429   1.292       .  A
O419       Zr453   2.462       .  S
O419        C430   1.297       .  A
O420       Zr426   2.465       .  S
O420        C431   1.296       .  A
O421       Zr426   2.450       .  S
O421        C432   1.294       .  A
O422       Zr456   2.454       .  S
O422        C432   1.294       .  A
O423       Zr455   2.454       .  S
O423        C431   1.294       .  A
O424       Zr426   2.413       .  S
O424        C430   1.287       .  A
O425       Zr426   2.420   1_554  S
O425        C429   1.288       .  A
Zr426       O427   2.342       .  S
Zr426       O428   2.343   1_556  S
Zr426       O436   2.337   1_556  S
Zr426       O434   2.341       .  S
O427       Zr453   2.344       .  S
O427       Zr456   2.336       .  S
O428       Zr454   2.354       .  S
O428       Zr455   2.340   1_554  S
C429        C963   1.459       .  S
C430        C891   1.471       .  S
C431        C579   1.492       .  S
C432        C507   1.487       .  S
H433        O434   0.967       .  S
O434       Zr453   2.356       .  S
O434       Zr455   2.344       .  S
H435        O436   0.966       .  S
O436       Zr454   2.347       .  S
O436       Zr456   2.332   1_554  S
O437       Zr453   2.463       .  S
O437        C460   1.297       .  A
O438       Zr454   2.466       .  S
O438        C461   1.298       .  A
O439       Zr455   2.432       .  S
O439        C462   1.291       .  A
O440       Zr456   2.413       .  S
O440        C463   1.287       .  A
O441       Zr456   2.408   1_554  S
O441        C464   1.287       .  A
O442       Zr455   2.429   1_554  S
O442        C465   1.291       .  A
O443       Zr457   2.446       .  S
O443        C466   1.294       .  A
O444       Zr457   2.450       .  S
O444        C467   1.294       .  A
O445       Zr455   2.455       .  S
O445        C466   1.295       .  A
O446       Zr456   2.453       .  S
O446        C467   1.295       .  A
O447       Zr453   2.464       .  S
O447        C462   1.297       .  A
O448       Zr454   2.468       .  S
O448        C465   1.299       .  A
O449       Zr454   2.466       .  S
O449        C464   1.297       .  A
O450       Zr453   2.479       .  S
O450        C463   1.301       .  A
O451       Zr457   2.421       .  S
O451        C460   1.289       .  A
O452       Zr457   2.422   1_554  S
O452        C461   1.289       .  A
Zr453       O459   2.352       .  S
Zr453       O471   2.344       .  S
Zr454       O458   2.342       .  S
Zr454       O469   2.343       .  S
Zr455       O459   2.348       .  S
Zr455       O469   2.347   1_556  S
Zr456       O458   2.344   1_556  S
Zr456       O471   2.337       .  S
Zr457       O458   2.341   1_556  S
Zr457       O459   2.341       .  S
Zr457       O471   2.346       .  S
Zr457       O469   2.340   1_556  S
C460        C915   1.475       .  S
C461        C936   1.478       .  S
C462        C627   1.475       .  S
C463        C603   1.481       .  S
C464        C672   1.470       .  S
C465        C648   1.485       .  S
C466        C528   1.486       .  S
C467        C552   1.486       .  S
H468        O469   0.967       .  S
H470        O471   0.966       .  S
N472        C476   1.373       .  A
N472        C473   1.371   1_554  A
N472        C555   1.456       .  S
C473        C474   1.380   1_556  A
C473        C699   1.486       .  S
C474        C475   1.358       .  A
C474        H477   1.083   1_554  S
C475        C476   1.383       .  A
C475        H478   1.082       .  S
C476       C1035   1.490       .  S
N479        C483   1.369       .  A
N479        C480   1.369   1_554  A
N479        C531   1.455       .  S
C480        C481   1.381       .  A
C480       C1011   1.483       .  S
C481        C482   1.360   1_556  A
C481        H484   1.083       .  S
C482        C483   1.381       .  A
C482        H485   1.083       .  S
C483        C747   1.481       .  S
N486        C490   1.367       .  A
N486        C487   1.368       .  A
N486        C504   1.457       .  S
C487        C488   1.384       .  A
C487        C723   1.480       .  S
C488        C489   1.357       .  A
C488        H491   1.082       .  S
C489        C490   1.380       .  A
C489        H492   1.083       .  S
C490        C987   1.475   1_556  S
C493        C494   1.401       .  A
C493        C498   1.404       .  A
C493        H509   1.084       .  S
C494        C495   1.405       .  A
C494        H510   1.084       .  S
C495        C505   1.407       .  A
C495        C496   1.410       .  A
C496        C502   1.410   1_556  A
C496        C497   1.417       .  A
C497        C499   1.412   1_556  A
C497        C498   1.412       .  A
C498        C506   1.407       .  A
C499        C508   1.408       .  A
C499        C500   1.405       .  A
C500        C501   1.402       .  A
C500        H511   1.084       .  S
C501        C502   1.405       .  A
C501        H512   1.084       .  S
C502        C503   1.407       .  A
C503        C504   1.411   1_554  A
C503        H513   1.082       .  S
C504        C505   1.412       .  A
C505        H514   1.082       .  S
C506        C507   1.408       .  A
C506        H515   1.084       .  S
C507        C508   1.409   1_556  A
C508        H516   1.084       .  S
C517        C518   1.403       .  A
C517        C522   1.406       .  A
C517        H533   1.083       .  S
C518        C519   1.405       .  A
C518        H534   1.084       .  S
C519        C529   1.410       .  A
C519        C520   1.412       .  A
C520        C526   1.412   1_554  A
C520        C521   1.417       .  A
C521        C523   1.410   1_554  A
C521        C522   1.411       .  A
C522        C530   1.410       .  A
C523        C532   1.405       .  A
C523        C524   1.404       .  A
C524        C525   1.399       .  A
C524        H535   1.084       .  S
C525        C526   1.403       .  A
C525        H536   1.084       .  S
C526        C527   1.405       .  A
C527        C528   1.407       .  A
C527        H537   1.085       .  S
C528        C529   1.409   1_556  A
C529        H538   1.084       .  S
C530        C531   1.412       .  A
C530        H539   1.082       .  S
C531        C532   1.410   1_554  A
C532        H540   1.081       .  S
C541        C542   1.400       .  A
C541        C546   1.404       .  A
C541        H557   1.084       .  S
C542        C543   1.404       .  A
C542        H558   1.084       .  S
C543        C553   1.406       .  A
C543        C544   1.412       .  A
C544        C550   1.412   1_556  A
C544        C545   1.417       .  A
C545        C547   1.411   1_556  A
C545        C546   1.410       .  A
C546        C554   1.406       .  A
C547        C556   1.410       .  A
C547        C548   1.406       .  A
C548        C549   1.403       .  A
C548        H559   1.083       .  S
C549        C550   1.405       .  A
C549        H560   1.084       .  S
C550        C551   1.410       .  A
C551        C552   1.409   1_554  A
C551        H561   1.084       .  S
C552        C553   1.407       .  A
C553        H562   1.084       .  S
C554        C555   1.410   1_556  A
C554        H563   1.082       .  S
C555        C556   1.412       .  A
C556        H564   1.083       .  S
C565        C566   1.403       .  A
C565        C570   1.405       .  A
C565        H581   1.083       .  S
C566        C567   1.405       .  A
C566        H582   1.084       .  S
C567        C577   1.408       .  A
C567        C568   1.410       .  A
C568        C574   1.412   1_556  A
C568        C569   1.419       .  A
C569        C571   1.411   1_556  A
C569        C570   1.413       .  A
C570        C578   1.411       .  A
C571        C580   1.409       .  A
C571        C572   1.405       .  A
C572        C573   1.402       .  A
C572        H583   1.084       .  S
C573        C574   1.404       .  A
C573        H584   1.083       .  S
C574        C575   1.409       .  A
C575        C576   1.409   1_554  A
C575        H585   1.083       .  S
C576        C577   1.412       .  A
C577        H586   1.083       .  S
C578        C579   1.410       .  A
C578        H587   1.084       .  S
C579        C580   1.409   1_556  A
C580        H588   1.084       .  S
C589        C590   1.396       .  A
C589        C594   1.401       .  A
C589        H605   1.084       .  S
C590        C591   1.403       .  A
C590        H606   1.084       .  S
C591        C601   1.396       .  A
C591        C592   1.408       .  A
C592        C598   1.415       .  A
C592        C593   1.414       .  A
C593        C595   1.410       .  A
C593        C594   1.414       .  A
C594        C602   1.402       .  A
C595        C604   1.410       .  A
C595        C596   1.407       .  A
C596        C597   1.405       .  A
C596        H607   1.084       .  S
C597        C598   1.405       .  A
C597        H608   1.084       .  S
C598        C599   1.414       .  A
C599        C600   1.408       .  A
C599        H609   1.084       .  S
C600        C601   1.407       .  A
C601        H610   1.085       .  S
C602        C603   1.401       .  A
C602        H611   1.085       .  S
C603        C604   1.413       .  A
C604        H612   1.084       .  S
C613        C614   1.403       .  A
C613        C618   1.405       .  A
C613        H629   1.084       .  S
C614        C615   1.404       .  A
C614        H630   1.083       .  S
C615        C625   1.411       .  A
C615        C616   1.414       .  A
C616        C622   1.409       .  A
C616        C617   1.414       .  A
C617        C619   1.414       .  A
C617        C618   1.411       .  A
C618        C626   1.407       .  A
C619        C628   1.405       .  A
C619        C620   1.402       .  A
C620        C621   1.398       .  A
C620        H631   1.084       .  S
C621        C622   1.404       .  A
C621        H632   1.084       .  S
C622        C623   1.400       .  A
C623        C624   1.407       .  A
C623        H633   1.085       .  S
C624        C625   1.406       .  A
C625        H634   1.084       .  S
C626        C627   1.408       .  A
C626        H635   1.085       .  S
C627        C628   1.403       .  A
C628        H636   1.085       .  S
C637        C638   1.398       .  A
C637        C642   1.404       .  A
C637        H653   1.084       .  S
C638        C639   1.403       .  A
C638        H654   1.084       .  S
C639        C649   1.406       .  A
C639        C640   1.414       .  A
C640        C646   1.409       .  A
C640        C641   1.414       .  A
C641        C643   1.415       .  A
C641        C642   1.408       .  A
C642        C650   1.399       .  A
C643        C652   1.411       .  A
C643        C644   1.404       .  A
C644        C645   1.402       .  A
C644        H655   1.083       .  S
C645        C646   1.406       .  A
C645        H656   1.084       .  S
C646        C647   1.405       .  A
C647        C648   1.411       .  A
C647        H657   1.084       .  S
C648        C649   1.405       .  A
C649        H658   1.084       .  S
C650        C651   1.408       .  A
C650        H659   1.085       .  S
C651        C652   1.406       .  A
C652        H660   1.084       .  S
C661        C662   1.398       .  A
C661        C666   1.404       .  A
C661        H677   1.084       .  S
C662        C663   1.403       .  A
C662        H678   1.084       .  S
C663        C673   1.405       .  A
C663        C664   1.415       .  A
C664        C670   1.409       .  A
C664        C665   1.410       .  A
C665        C667   1.415       .  A
C665        C666   1.409       .  A
C666        C674   1.398       .  A
C667        C676   1.404       .  A
C667        C668   1.403       .  A
C668        C669   1.398       .  A
C668        H679   1.084       .  S
C669        C670   1.403       .  A
C669        H680   1.084       .  S
C670        C671   1.398       .  A
C671        C672   1.405       .  A
C671        H681   1.085       .  S
C672        C673   1.404       .  A
C673        H682   1.085       .  S
C674        C675   1.405       .  A
C674        H683   1.085       .  S
C675        C676   1.403       .  A
C676        H684   1.084       .  S
C685        C686   1.397       .  A
C685        C690   1.404       .  A
C685        H701   1.084       .  S
C686        C687   1.402       .  A
C686        H702   1.084       .  S
C687        C697   1.404       .  A
C687        C688   1.414       .  A
C688        C694   1.410   1_556  A
C688        C689   1.414       .  A
C689        C691   1.415   1_556  A
C689        C690   1.408       .  A
C690        C698   1.398       .  A
C691        C700   1.412       .  A
C691        C692   1.404       .  A
C692        C693   1.403       .  A
C692        H703   1.083       .  S
C693        C694   1.406       .  A
C693        H704   1.084       .  S
C694        C695   1.406       .  A
C695        C696   1.410   1_554  A
C695        H705   1.084       .  S
C696        C697   1.403       .  A
C697        H706   1.085       .  S
C698        C699   1.408       .  A
C698        H707   1.085       .  S
C699        C700   1.407   1_556  A
C700        H708   1.084       .  S
C709        C710   1.402       .  A
C709        C714   1.404       .  A
C709        H725   1.084       .  S
C710        C711   1.406       .  A
C710        H726   1.084       .  S
C711        C721   1.403       .  A
C711        C712   1.410   1_554  A
C712        C718   1.414       .  A
C712        C713   1.409       .  A
C713        C715   1.408       .  A
C713        C714   1.414   1_556  A
C714        C722   1.408       .  A
C715        C724   1.392       .  A
C715        C716   1.402       .  A
C716        C717   1.394       .  A
C716        H727   1.084       .  S
C717        C718   1.400       .  A
C717        H728   1.084       .  S
C718        C719   1.397       .  A
C719        C720   1.399       .  A
C719        H729   1.085       .  S
C720        C721   1.409   1_556  A
C721        H730   1.085       .  S
C722        C723   1.406   1_554  A
C722        H731   1.084       .  S
C723        C724   1.406       .  A
C724        H732   1.085       .  S
C733        C734   1.402       .  A
C733        C738   1.404       .  A
C733        H749   1.083       .  S
C734        C735   1.405       .  A
C734        H750   1.084       .  S
C735        C745   1.405       .  A
C735        C736   1.410   1_556  A
C736        C742   1.414       .  A
C736        C737   1.414       .  A
C737        C739   1.409       .  A
C737        C738   1.415   1_554  A
C738        C746   1.411       .  A
C739        C748   1.399       .  A
C739        C740   1.404       .  A
C740        C741   1.398       .  A
C740        H751   1.084       .  S
C741        C742   1.402       .  A
C741        H752   1.084       .  S
C742        C743   1.405       .  A
C743        C744   1.403   1_554  A
C743        H753   1.085       .  S
C744        C745   1.408       .  A
C745        H754   1.085       .  S
C746        C747   1.406   1_556  A
C746        H755   1.084       .  S
C747        C748   1.406       .  A
C748        H756   1.085       .  S
C757        C758   1.398       .  A
C757        C762   1.404       .  A
C757        H773   1.084       .  S
C758        C759   1.402       .  A
C758        H774   1.084       .  S
C759        C769   1.403       .  A
C759        C760   1.414       .  A
C760        C766   1.410   1_554  A
C760        C761   1.413       .  A
C761        C763   1.414   1_554  A
C761        C762   1.408       .  A
C762        C770   1.399       .  A
C763        C772   1.409       .  A
C763        C764   1.404       .  A
C764        C765   1.401       .  A
C764        H775   1.083       .  S
C765        C766   1.405       .  A
C765        H776   1.084       .  S
C766        C767   1.403       .  A
C767        C768   1.408       .  A
C767        H777   1.085       .  S
C768        C769   1.404   1_556  A
C769        H778   1.085       .  S
C770        C771   1.409       .  A
C770        H779   1.085       .  S
C771        C772   1.406   1_554  A
C772        H780   1.084       .  S
C781        C782   1.402       .  A
C781        C786   1.404       .  A
C781        H797   1.083       .  S
C782        C783   1.405       .  A
C782        H798   1.084       .  S
C783        C793   1.407       .  A
C783        C784   1.411       .  A
C784        C790   1.412       .  A
C784        C785   1.416       .  A
C785        C787   1.410       .  A
C785        C786   1.411       .  A
C786        C794   1.408       .  A
C787        C796   1.405       .  A
C787        C788   1.404       .  A
C788        C789   1.401       .  A
C788        H799   1.084       .  S
C789        C790   1.404       .  A
C789        H800   1.084       .  S
C790        C791   1.407       .  A
C791        C792   1.408       .  A
C791        H801   1.084       .  S
C792        C793   1.408       .  A
C793        H802   1.084       .  S
C794        C795   1.410       .  A
C794        H803   1.083       .  S
C795        C796   1.410       .  A
C796        H804   1.082       .  S
C805        C806   1.399       .  A
C805        C810   1.404       .  A
C805        H821   1.084       .  S
C806        C807   1.403       .  A
C806        H822   1.084       .  S
C807        C817   1.405       .  A
C807        C808   1.412       .  A
C808        C814   1.412       .  A
C808        C809   1.418       .  A
C809        C811   1.412       .  A
C809        C810   1.410       .  A
C810        C818   1.404       .  A
C811        C820   1.413       .  A
C811        C812   1.406       .  A
C812        C813   1.405       .  A
C812        H823   1.083       .  S
C813        C814   1.407       .  A
C813        H824   1.084       .  S
C814        C815   1.414       .  A
C815        C816   1.412       .  A
C815        H825   1.084       .  S
C816        C817   1.407       .  A
C817        H826   1.085       .  S
C818        C819   1.410       .  A
C818        H827   1.082       .  S
C819        C820   1.412       .  A
C820        H828   1.083       .  S
C829        C830   1.403       .  A
C829        C834   1.405       .  A
C829        H845   1.083       .  S
C830        C831   1.405       .  A
C830        H846   1.083       .  S
C831        C841   1.408       .  A
C831        C832   1.411       .  A
C832        C838   1.411       .  A
C832        C833   1.414       .  A
C833        C835   1.409       .  A
C833        C834   1.412       .  A
C834        C842   1.409       .  A
C835        C844   1.400       .  A
C835        C836   1.403       .  A
C836        C837   1.398       .  A
C836        H847   1.084       .  S
C837        C838   1.402       .  A
C837        H848   1.081       .  S
C838        C839   1.403       .  A
C839        C840   1.406       .  A
C839        H849   1.084       .  S
C840        C841   1.408       .  A
C841        H850   1.084       .  S
C842        C843   1.410       .  A
C842        H851   1.082       .  S
C843        C844   1.409       .  A
C844        H852   1.082       .  S
C853        C854   1.401       .  A
C853        C858   1.405       .  A
C853        H869   1.083       .  S
C854        C855   1.404       .  A
C854        H870   1.084       .  S
C855        C865   1.405       .  A
C855        C856   1.412       .  A
C856        C862   1.413       .  A
C856        C857   1.413       .  A
C857        C859   1.411       .  A
C857        C858   1.412       .  A
C858        C866   1.406       .  A
C859        C868   1.404       .  A
C859        C860   1.404       .  A
C860        C861   1.399       .  A
C860        H871   1.083       .  S
C861        C862   1.403       .  A
C861        H872   1.084       .  S
C862        C863   1.403       .  A
C863        C864   1.403       .  A
C863        H873   1.085       .  S
C864        C865   1.405       .  A
C865        H874   1.085       .  S
C866        C867   1.408       .  A
C866        H875   1.083       .  S
C867        C868   1.406       .  A
C868        H876   1.083       .  S
C877        C878   1.401       .  A
C877        C882   1.405       .  A
C877        H893   1.084       .  S
C878        C879   1.404       .  A
C878        H894   1.083       .  S
C879        C889   1.409       .  A
C879        C880   1.415       .  A
C880        C886   1.409       .  A
C880        C881   1.411       .  A
C881        C883   1.415       .  A
C881        C882   1.409       .  A
C882        C890   1.402       .  A
C883        C892   1.403       .  A
C883        C884   1.402       .  A
C884        C885   1.397       .  A
C884        H895   1.084       .  S
C885        C886   1.403       .  A
C885        H896   1.084       .  S
C886        C887   1.397       .  A
C887        C888   1.404       .  A
C887        H897   1.085       .  S
C888        C889   1.405       .  A
C889        H898   1.084       .  S
C890        C891   1.408       .  A
C890        H899   1.085       .  S
C891        C892   1.402       .  A
C892        H900   1.085       .  S
C901        C902   1.401       .  A
C901        C906   1.405       .  A
C901        H917   1.084       .  S
C902        C903   1.404       .  A
C902        H918   1.084       .  S
C903        C913   1.408       .  A
C903        C904   1.414       .  A
C904        C910   1.410       .  A
C904        C905   1.413       .  A
C905        C907   1.413       .  A
C905        C906   1.411       .  A
C906        C914   1.405       .  A
C907        C916   1.403       .  A
C907        C908   1.402       .  A
C908        C909   1.398       .  A
C908        H919   1.084       .  S
C909        C910   1.404       .  A
C909        H920   1.084       .  S
C910        C911   1.400       .  A
C911        C912   1.407       .  A
C911        H921   1.085       .  S
C912        C913   1.406       .  A
C913        H922   1.084       .  S
C914        C915   1.408       .  A
C914        H923   1.085       .  S
C915        C916   1.403       .  A
C916        H924   1.085       .  S
C925        C926   1.402       .  A
C925        C930   1.404       .  A
C925        H941   1.084       .  S
C926        C927   1.405       .  A
C926        H942   1.083       .  S
C927        C937   1.405       .  A
C927        C928   1.410       .  A
C928        C934   1.414       .  A
C928        C929   1.413       .  A
C929        C931   1.409       .  A
C929        C930   1.414       .  A
C930        C938   1.409       .  A
C931        C940   1.397       .  A
C931        C932   1.403       .  A
C932        C933   1.397       .  A
C932        H943   1.084       .  S
C933        C934   1.402       .  A
C933        H944   1.084       .  S
C934        C935   1.404       .  A
C935        C936   1.403       .  A
C935        H945   1.084       .  S
C936        C937   1.409       .  A
C937        H946   1.084       .  S
C938        C939   1.406       .  A
C938        H947   1.084       .  S
C939        C940   1.406       .  A
C940        H948   1.085       .  S
C949        C950   1.392       .  A
C949        C954   1.400       .  A
C949        H965   1.084       .  S
C950        C951   1.402       .  A
C950        H966   1.084       .  S
C951        C961   1.392       .  A
C951        C952   1.410       .  A
C952        C958   1.413       .  A
C952        C953   1.407       .  A
C953        C955   1.412       .  A
C953        C954   1.413       .  A
C954        C962   1.392       .  A
C955        C964   1.403       .  A
C955        C956   1.405       .  A
C956        C957   1.401       .  A
C956        H967   1.084       .  S
C957        C958   1.404       .  A
C957        H968   1.084       .  S
C958        C959   1.406       .  A
C959        C960   1.405       .  A
C959        H969   1.084       .  S
C960        C961   1.402       .  A
C961        H970   1.085       .  S
C962        C963   1.397       .  A
C962        H971   1.085       .  S
C963        C964   1.406       .  A
C964        H972   1.085       .  S
C973        C974   1.399       .  A
C973        C978   1.402       .  A
C973        H989   1.084       .  S
C974        C975   1.404       .  A
C974        H990   1.083       .  S
C975        C985   1.401       .  A
C975        C976   1.410   1_556  A
C976        C982   1.413       .  A
C976        C977   1.409       .  A
C977        C979   1.409       .  A
C977        C978   1.414   1_554  A
C978        C986   1.405       .  A
C979        C988   1.395       .  A
C979        C980   1.403       .  A
C980        C981   1.397       .  A
C980        H991   1.084       .  S
C981        C982   1.402       .  A
C981        H992   1.084       .  S
C982        C983   1.401       .  A
C983        C984   1.403   1_554  A
C983        H993   1.085       .  S
C984        C985   1.406       .  A
C985        H994   1.084       .  S
C986        C987   1.403   1_556  A
C986        H995   1.084       .  S
C987        C988   1.406       .  A
C988        H996   1.085       .  S
C997        C998   1.395       .  A
C997       C1002   1.403       .  A
C997       H1013   1.084       .  S
C998        C999   1.401       .  A
C998       H1014   1.084       .  S
C999       C1009   1.398       .  A
C999       C1000   1.413       .  A
C1000      C1006   1.412   1_556  A
C1000      C1001   1.411       .  A
C1001      C1003   1.414   1_556  A
C1001      C1002   1.409       .  A
C1002      C1010   1.396       .  A
C1003      C1012   1.410       .  A
C1003      C1004   1.405       .  A
C1004      C1005   1.402       .  A
C1004      H1015   1.083       .  S
C1005      C1006   1.405       .  A
C1005      H1016   1.084       .  S
C1006      C1007   1.406       .  A
C1007      C1008   1.405       .  A
C1007      H1017   1.084       .  S
C1008      C1009   1.401   1_554  A
C1009      H1018   1.085       .  S
C1010      C1011   1.406       .  A
C1010      H1019   1.085       .  S
C1011      C1012   1.406   1_556  A
C1012      H1020   1.084       .  S
C1021      C1022   1.400       .  A
C1021      C1026   1.405       .  A
C1021      H1037   1.084       .  S
C1022      C1023   1.403       .  A
C1022      H1038   1.083       .  S
C1023      C1033   1.407       .  A
C1023      C1024   1.414       .  A
C1024      C1030   1.409   1_554  A
C1024      C1025   1.413       .  A
C1025      C1027   1.415   1_554  A
C1025      C1026   1.407       .  A
C1026      C1034   1.400       .  A
C1027      C1036   1.409       .  A
C1027      C1028   1.403       .  A
C1028      C1029   1.400       .  A
C1028      H1039   1.083       .  S
C1029      C1030   1.404       .  A
C1029      H1040   1.084       .  S
C1030      C1031   1.401       .  A
C1031      C1032   1.406       .  A
C1031      H1041   1.085       .  S
C1032      C1033   1.407   1_556  A
C1033      H1042   1.084       .  S
C1034      C1035   1.412       .  A
C1034      H1043   1.084       .  S
C1035      C1036   1.406   1_554  A
C1036      H1044   1.083       .  S
C1045      C1046   1.402       .  A
C1045      C1050   1.405       .  A
C1045      H1061   1.084       .  S
C1046      C1047   1.404       .  A
C1046      H1062   1.083       .  S
C1047      C1057   1.408       .  A
C1047      C1048   1.414   1_554  A
C1048      C1054   1.410       .  A
C1048      C1049   1.412       .  A
C1049      C1051   1.413       .  A
C1049      C1050   1.412   1_556  A
C1050      C1058   1.406       .  A
C1051      C1060   1.400       .  A
C1051      C1052   1.402       .  A
C1052      C1053   1.397       .  A
C1052      H1063   1.084       .  S
C1053      C1054   1.403       .  A
C1053      H1064   1.084       .  S
C1054      C1055   1.399       .  A
C1055      C1056   1.405       .  A
C1055      H1065   1.085       .  S
C1056      C1057   1.405   1_556  A
C1057      H1066   1.084       .  S
C1058      C1059   1.407   1_554  A
C1058      H1067   1.085       .  S
C1059      C1060   1.400       .  A
C1060      H1068   1.085       .  S
C1069      C1070   1.399       .  A
C1069      C1074   1.403       .  A
C1069      H1085   1.084       .  S
C1070      C1071   1.404       .  A
C1070      H1086   1.084       .  S
C1071      C1081   1.404       .  A
C1071      C1072   1.412       .  A
C1072      C1078   1.411       .  A
C1072      C1073   1.414       .  A
C1073      C1075   1.412       .  A
C1073      C1074   1.412       .  A
C1074      C1082   1.404       .  A
C1075      C1084   1.406       .  A
C1075      C1076   1.404       .  A
C1076      C1077   1.401       .  A
C1076      H1087   1.084       .  S
C1077      C1078   1.404       .  A
C1077      H1088   1.084       .  S
C1078      C1079   1.405       .  A
C1079      C1080   1.407       .  A
C1079      H1089   1.083       .  S
C1080      C1081   1.406       .  A
C1081      H1090   1.083       .  S
C1082      C1083   1.405       .  A
C1082      H1091   1.085       .  S
C1083      C1084   1.407       .  A
C1084      H1092   1.084       .  S
C1093      C1094   1.401       .  A
C1093      C1098   1.403       .  A
C1093      H1109   1.083       .  S
C1094      C1095   1.404       .  A
C1094      H1110   1.083       .  S
C1095      C1105   1.409       .  A
C1095      C1096   1.413       .  A
C1096      C1102   1.413       .  A
C1096      C1097   1.418       .  A
C1097      C1099   1.412       .  A
C1097      C1098   1.412       .  A
C1098      C1106   1.406       .  A
C1099      C1108   1.410       .  A
C1099      C1100   1.405       .  A
C1100      C1101   1.404       .  A
C1100      H1111   1.083       .  S
C1101      C1102   1.406       .  A
C1101      H1112   1.084       .  S
C1102      C1103   1.411       .  A
C1103      C1104   1.408       .  A
C1103      H1113   1.084       .  S
C1104      C1105   1.406       .  A
C1105      H1114   1.084       .  S
C1106      C1107   1.404       .  A
C1106      H1115   1.084       .  S
C1107      C1108   1.408       .  A
C1108      H1116   1.084       .  S
C1117      C1118   1.399       .  A
C1117      C1122   1.403       .  A
C1117      H1133   1.084       .  S
C1118      C1119   1.403       .  A
C1118      H1134   1.083       .  S
C1119      C1129   1.404       .  A
C1119      C1120   1.412       .  A
C1120      C1126   1.411       .  A
C1120      C1121   1.415       .  A
C1121      C1123   1.413       .  A
C1121      C1122   1.412       .  A
C1122      C1130   1.404       .  A
C1123      C1132   1.408       .  A
C1123      C1124   1.405       .  A
C1124      C1125   1.402       .  A
C1124      H1135   1.084       .  S
C1125      C1126   1.405       .  A
C1125      H1136   1.083       .  S
C1126      C1127   1.407       .  A
C1127      C1128   1.409       .  A
C1127      H1137   1.083       .  S
C1128      C1129   1.406       .  A
C1129      H1138   1.083       .  S
C1130      C1131   1.405       .  A
C1130      H1139   1.085       .  S
C1131      C1132   1.407       .  A
C1132      H1140   1.084       .  S
C1141      C1142   1.397       .  A
C1141      C1146   1.403       .  A
C1141      H1157   1.084       .  S
C1142      C1143   1.402       .  A
C1142      H1158   1.084       .  S
C1143      C1153   1.401       .  A
C1143      C1144   1.412       .  A
C1144      C1150   1.412       .  A
C1144      C1145   1.413       .  A
C1145      C1147   1.410       .  A
C1145      C1146   1.410       .  A
C1146      C1154   1.400       .  A
C1147      C1156   1.408       .  A
C1147      C1148   1.406       .  A
C1148      C1149   1.403       .  A
C1148      H1159   1.084       .  S
C1149      C1150   1.405       .  A
C1149      H1160   1.084       .  S
C1150      C1151   1.407       .  A
C1151      C1152   1.410       .  A
C1151      H1161   1.084       .  S
C1152      C1153   1.404       .  A
C1153      H1162   1.085       .  S
C1154      C1155   1.407       .  A
C1154      H1163   1.081       .  S
C1155      C1156   1.413       .  A
C1156      H1164   1.082       .  S
C1165      C1166   1.393       .  A
C1165      C1170   1.400       .  A
C1165      H1181   1.084       .  S
C1166      C1167   1.401       .  A
C1166      H1182   1.084       .  S
C1167      C1177   1.393       .  A
C1167      C1168   1.409       .  A
C1168      C1174   1.414   1_545  A
C1168      C1169   1.412       .  A
C1169      C1171   1.411   1_545  A
C1169      C1170   1.413       .  A
C1170      C1178   1.396       .  A
C1171      C1180   1.411       .  A
C1171      C1172   1.407       .  A
C1172      C1173   1.406       .  A
C1172      H1183   1.084       .  S
C1173      C1174   1.406       .  A
C1173      H1184   1.084       .  S
C1174      C1175   1.414       .  A
C1175      C1176   1.410   1_565  A
C1175      H1185   1.084       .  S
C1176      C1177   1.404       .  A
C1177      H1186   1.085       .  S
C1178      C1179   1.399   1_545  A
C1178      H1187   1.085       .  S
C1179      C1180   1.412       .  A
C1180      H1188   1.084       .  S
C1189      C1190   1.403       .  A
C1189      C1194   1.406       .  A
C1189      H1205   1.084       .  S
C1190      C1191   1.405       .  A
C1190      H1206   1.083       .  S
C1191      C1201   1.411       .  A
C1191      C1192   1.414   1_545  A
C1192      C1198   1.410       .  A
C1192      C1193   1.413       .  A
C1193      C1195   1.414       .  A
C1193      C1194   1.411   1_565  A
C1194      C1202   1.406       .  A
C1195      C1204   1.402       .  A
C1195      C1196   1.401       .  A
C1196      C1197   1.396       .  A
C1196      H1207   1.084       .  S
C1197      C1198   1.403       .  A
C1197      H1208   1.084       .  S
C1198      C1199   1.398       .  A
C1199      C1200   1.403       .  A
C1199      H1209   1.085       .  S
C1200      C1201   1.408   1_565  A
C1201      H1210   1.084       .  S
C1202      C1203   1.408   1_545  A
C1202      H1211   1.084       .  S
C1203      C1204   1.400       .  A
C1204      H1212   1.085       .  S
C1213      C1214   1.397       .  A
C1213      C1218   1.401       .  A
C1213      H1229   1.084       .  S
C1214      C1215   1.404       .  A
C1214      H1230   1.084       .  S
C1215      C1225   1.397       .  A
C1215      C1216   1.407       .  A
C1216      C1222   1.414       .  A
C1216      C1217   1.414       .  A
C1217      C1219   1.410   1_565  A
C1217      C1218   1.414       .  A
C1218      C1226   1.402       .  A
C1219      C1228   1.408       .  A
C1219      C1220   1.406       .  A
C1220      C1221   1.404       .  A
C1220      H1231   1.083       .  S
C1221      C1222   1.405   1_545  A
C1221      H1232   1.083       .  S
C1222      C1223   1.414       .  A
C1223      C1224   1.410       .  A
C1223      H1233   1.083   1_565  S
C1224      C1225   1.410       .  A
C1225      H1234   1.084       .  S
C1226      C1227   1.403       .  A
C1226      H1235   1.085       .  S
C1227      C1228   1.411   1_565  A
C1228      H1236   1.084       .  S
C1237      C1238   1.403       .  A
C1237      C1242   1.405       .  A
C1237      H1253   1.084       .  S
C1238      C1239   1.406       .  A
C1238      H1254   1.083       .  S
C1239      C1249   1.406       .  A
C1239      C1240   1.410       .  A
C1240      C1246   1.414       .  A
C1240      C1241   1.411       .  A
C1241      C1243   1.409       .  A
C1241      C1242   1.415       .  A
C1242      C1250   1.410       .  A
C1243      C1252   1.393       .  A
C1243      C1244   1.402       .  A
C1244      C1245   1.395       .  A
C1244      H1255   1.084       .  S
C1245      C1246   1.401       .  A
C1245      H1256   1.084       .  S
C1246      C1247   1.400       .  A
C1247      C1248   1.400       .  A
C1247      H1257   1.085       .  S
C1248      C1249   1.410       .  A
C1249      H1258   1.084       .  S
C1250      C1251   1.406       .  A
C1250      H1259   1.084       .  S
C1251      C1252   1.403       .  A
C1252      H1260   1.085       .  S
C1261      C1262   1.400       .  A
C1261      C1266   1.404       .  A
C1261      H1277   1.084       .  S
C1262      C1263   1.404       .  A
C1262      H1278   1.083       .  S
C1263      C1273   1.399       .  A
C1263      C1264   1.409       .  A
C1264      C1270   1.414       .  A
C1264      C1265   1.408       .  A
C1265      C1267   1.408       .  A
C1265      C1266   1.415       .  A
C1266      C1274   1.406       .  A
C1267      C1276   1.393       .  A
C1267      C1268   1.403       .  A
C1268      C1269   1.395       .  A
C1268      H1279   1.084       .  S
C1269      C1270   1.401       .  A
C1269      H1280   1.084       .  S
C1270      C1271   1.399       .  A
C1271      C1272   1.400       .  A
C1271      H1281   1.085       .  S
C1272      C1273   1.407       .  A
C1273      H1282   1.084       .  S
C1274      C1275   1.405       .  A
C1274      H1283   1.084       .  S
C1275      C1276   1.404       .  A
C1276      H1284   1.085       .  S
C1285      C1286   1.396       .  A
C1285      C1290   1.402       .  A
C1285      H1301   1.084       .  S
C1286      C1287   1.403       .  A
C1286      H1302   1.084       .  S
C1287      C1297   1.397       .  A
C1287      C1288   1.409       .  A
C1288      C1294   1.414       .  A
C1288      C1289   1.414       .  A
C1289      C1291   1.411       .  A
C1289      C1290   1.413       .  A
C1290      C1298   1.401       .  A
C1291      C1300   1.409       .  A
C1291      C1292   1.406       .  A
C1292      C1293   1.404       .  A
C1292      H1303   1.083       .  S
C1293      C1294   1.405       .  A
C1293      H1304   1.084       .  S
C1294      C1295   1.412       .  A
C1295      C1296   1.408       .  A
C1295      H1305   1.084       .  S
C1296      C1297   1.405       .  A
C1297      H1306   1.085       .  S
C1298      C1299   1.402       .  A
C1298      H1307   1.085       .  S
C1299      C1300   1.410       .  A
C1300      H1308   1.084       .  S
C1309      C1310   1.400       .  A
C1309      C1314   1.405       .  A
C1309      H1325   1.084       .  S
C1310      C1311   1.404       .  A
C1310      H1326   1.083       .  S
C1311      C1321   1.408       .  A
C1311      C1312   1.414       .  A
C1312      C1318   1.410       .  A
C1312      C1313   1.416       .  A
C1313      C1315   1.414       .  A
C1313      C1314   1.408       .  A
C1314      C1322   1.402       .  A
C1315      C1324   1.411       .  A
C1315      C1316   1.404       .  A
C1316      C1317   1.402       .  A
C1316      H1327   1.083       .  S
C1317      C1318   1.405       .  A
C1317      H1328   1.084       .  S
C1318      C1319   1.406       .  A
C1319      C1320   1.409       .  A
C1319      H1329   1.084       .  S
C1320      C1321   1.406       .  A
C1321      H1330   1.084       .  S
C1322      C1323   1.411       .  A
C1322      H1331   1.084       .  S
C1323      C1324   1.406       .  A
C1324      H1332   1.083       .  S
C1333      C1334   1.400       .  A
C1333      C1338   1.404       .  A
C1333      H1349   1.084       .  S
C1334      C1335   1.404       .  A
C1334      H1350   1.084       .  S
C1335      C1345   1.405       .  A
C1335      C1336   1.411   1_565  A
C1336      C1342   1.410       .  A
C1336      C1337   1.415   1_545  A
C1337      C1339   1.412   1_565  A
C1337      C1338   1.411       .  A
C1338      C1346   1.405       .  A
C1339      C1348   1.408       .  A
C1339      C1340   1.405       .  A
C1340      C1341   1.402       .  A
C1340      H1351   1.083       .  S
C1341      C1342   1.405       .  A
C1341      H1352   1.084       .  S
C1342      C1343   1.406       .  A
C1343      C1344   1.411       .  A
C1343      H1353   1.082       .  S
C1344      C1345   1.409   1_545  A
C1345      H1354   1.082       .  S
C1346      C1347   1.408       .  A
C1346      H1355   1.085       .  S
C1347      C1348   1.408   1_565  A
C1348      H1356   1.084       .  S
C1357      C1358   1.399       .  A
C1357      C1362   1.404       .  A
C1357      H1373   1.084       .  S
C1358      C1359   1.403       .  A
C1358      H1374   1.084       .  S
C1359      C1369   1.404       .  A
C1359      C1360   1.413       .  A
C1360      C1366   1.412   1_565  A
C1360      C1361   1.413       .  A
C1361      C1363   1.412   1_565  A
C1361      C1362   1.410       .  A
C1362      C1370   1.402       .  A
C1363      C1372   1.406       .  A
C1363      C1364   1.404       .  A
C1364      C1365   1.400       .  A
C1364      H1375   1.083       .  S
C1365      C1366   1.404       .  A
C1365      H1376   1.084       .  S
C1366      C1367   1.404       .  A
C1367      C1368   1.405   1_545  A
C1367      H1377   1.085       .  S
C1368      C1369   1.405       .  A
C1369      H1378   1.085       .  S
C1370      C1371   1.407       .  A
C1370      H1379   1.083       .  S
C1371      C1372   1.406   1_565  A
C1372      H1380   1.083       .  S
C1381      C1382   1.402       .  A
C1381      C1386   1.404       .  A
C1381      H1397   1.083       .  S
C1382      C1383   1.404       .  A
C1382      H1398   1.083       .  S
C1383      C1393   1.408       .  A
C1383      C1384   1.411   1_545  A
C1384      C1390   1.411       .  A
C1384      C1385   1.418       .  A
C1385      C1387   1.412       .  A
C1385      C1386   1.413   1_565  A
C1386      C1394   1.409       .  A
C1387      C1396   1.409       .  A
C1387      C1388   1.405       .  A
C1388      C1389   1.402       .  A
C1388      H1399   1.084       .  S
C1389      C1390   1.405       .  A
C1389      H1400   1.084       .  S
C1390      C1391   1.408       .  A
C1391      C1392   1.410       .  A
C1391      H1401   1.083       .  S
C1392      C1393   1.409   1_565  A
C1393      H1402   1.083       .  S
C1394      C1395   1.407   1_545  A
C1394      H1403   1.084       .  S
C1395      C1396   1.410       .  A
C1396      H1404   1.085       .  S
C1405      C1406   1.394       .  A
C1405      C1410   1.400       .  A
C1405      H1421   1.082       .  S
C1406      C1407   1.402       .  A
C1406      H1422   1.084       .  S
C1407      C1417   1.395       .  A
C1407      C1408   1.409       .  A
C1408      C1414   1.413       .  A
C1408      C1409   1.412       .  A
C1409      C1411   1.411   1_565  A
C1409      C1410   1.413       .  A
C1410      C1418   1.398       .  A
C1411      C1420   1.409       .  A
C1411      C1412   1.406       .  A
C1412      C1413   1.405       .  A
C1412      H1423   1.084       .  S
C1413      C1414   1.406   1_545  A
C1413      H1424   1.083       .  S
C1414      C1415   1.412       .  A
C1415      C1416   1.409       .  A
C1415      H1425   1.084   1_565  S
C1416      C1417   1.404       .  A
C1417      H1426   1.085       .  S
C1418      C1419   1.400       .  A
C1418      H1427   1.085       .  S
C1419      C1420   1.410   1_565  A
C1420      H1428   1.084       .  S
C1429      C1430   1.401       .  A
C1429      C1434   1.405       .  A
C1429      H1445   1.083       .  S
C1430      C1431   1.404       .  A
C1430      H1446   1.084       .  S
C1431      C1441   1.406       .  A
C1431      C1432   1.411       .  A
C1432      C1438   1.411       .  A
C1432      C1433   1.416       .  A
C1433      C1435   1.412   1_565  A
C1433      C1434   1.411       .  A
C1434      C1442   1.407       .  A
C1435      C1444   1.407       .  A
C1435      C1436   1.404       .  A
C1436      C1437   1.401       .  A
C1436      H1447   1.084       .  S
C1437      C1438   1.404   1_545  A
C1437      H1448   1.084       .  S
C1438      C1439   1.405       .  A
C1439      C1440   1.408       .  A
C1439      H1449   1.082   1_565  S
C1440      C1441   1.410       .  A
C1441      H1450   1.083       .  S
C1442      C1443   1.408       .  A
C1442      H1451   1.083       .  S
C1443      C1444   1.408   1_565  A
C1444      H1452   1.084       .  S
C1453      C1454   1.394       .  A
C1453      C1458   1.400       .  A
C1453      H1469   1.084       .  S
C1454      C1455   1.403       .  A
C1454      H1470   1.084       .  S
C1455      C1465   1.394       .  A
C1455      C1456   1.409       .  A
C1456      C1462   1.414       .  A
C1456      C1457   1.409       .  A
C1457      C1459   1.411       .  A
C1457      C1458   1.413       .  A
C1458      C1466   1.396       .  A
C1459      C1468   1.403       .  A
C1459      C1460   1.405       .  A
C1460      C1461   1.402       .  A
C1460      H1471   1.084       .  S
C1461      C1462   1.405       .  A
C1461      H1472   1.083       .  S
C1462      C1463   1.408       .  A
C1463      C1464   1.406       .  A
C1463      H1473   1.084       .  S
C1464      C1465   1.405       .  A
C1465      H1474   1.085       .  S
C1466      C1467   1.399       .  A
C1466      H1475   1.085       .  S
C1467      C1468   1.406       .  A
C1468      H1476   1.085       .  S
C1477      C1478   1.397       .  A
C1477      C1482   1.404       .  A
C1477      H1493   1.084       .  S
C1478      C1479   1.402       .  A
C1478      H1494   1.084       .  S
C1479      C1489   1.402       .  A
C1479      C1480   1.414       .  A
C1480      C1486   1.410       .  A
C1480      C1481   1.411       .  A
C1481      C1483   1.414       .  A
C1481      C1482   1.409       .  A
C1482      C1490   1.397       .  A
C1483      C1492   1.408       .  A
C1483      C1484   1.404       .  A
C1484      C1485   1.401       .  A
C1484      H1495   1.083       .  S
C1485      C1486   1.404       .  A
C1485      H1496   1.084       .  S
C1486      C1487   1.403       .  A
C1487      C1488   1.407       .  A
C1487      H1497   1.084       .  S
C1488      C1489   1.403       .  A
C1489      H1498   1.085       .  S
C1490      C1491   1.407       .  A
C1490      H1499   1.085       .  S
C1491      C1492   1.405       .  A
C1492      H1500   1.084       .  S
C1501      C1502   1.399       .  A
C1501      C1506   1.403       .  A
C1501      H1517   1.083       .  S
C1502      C1503   1.404       .  A
C1502      H1518   1.084       .  S
C1503      C1513   1.401       .  A
C1503      C1504   1.410       .  A
C1504      C1510   1.414       .  A
C1504      C1505   1.414       .  A
C1505      C1507   1.411       .  A
C1505      C1506   1.414       .  A
C1506      C1514   1.405       .  A
C1507      C1516   1.405       .  A
C1507      C1508   1.405       .  A
C1508      C1509   1.401       .  A
C1508      H1519   1.084       .  S
C1509      C1510   1.404       .  A
C1509      H1520   1.083       .  S
C1510      C1511   1.409       .  A
C1511      C1512   1.405       .  A
C1511      H1521   1.084       .  S
C1512      C1513   1.406       .  A
C1513      H1522   1.085       .  S
C1514      C1515   1.403       .  A
C1514      H1523   1.085       .  S
C1515      C1516   1.407       .  A
C1516      H1524   1.085       .  S
C1525      C1526   1.396       .  A
C1525      C1530   1.401       .  A
C1525      H1541   1.084       .  S
C1526      C1527   1.402       .  A
C1526      H1542   1.084       .  S
C1527      C1537   1.398       .  A
C1527      C1528   1.411       .  A
C1528      C1534   1.414       .  A
C1528      C1529   1.412       .  A
C1529      C1531   1.412       .  A
C1529      C1530   1.413       .  A
C1530      C1538   1.399       .  A
C1531      C1540   1.407       .  A
C1531      C1532   1.405       .  A
C1532      C1533   1.402       .  A
C1532      H1543   1.084       .  S
C1533      C1534   1.405       .  A
C1533      H1544   1.084       .  S
C1534      C1535   1.408       .  A
C1535      C1536   1.405       .  A
C1535      H1545   1.084       .  S
C1536      C1537   1.403       .  A
C1537      H1546   1.085       .  S
C1538      C1539   1.400       .  A
C1538      H1547   1.085       .  S
C1539      C1540   1.407       .  A
C1540      H1548   1.084       .  S
C1549      C1550   1.401       .  A
C1549      C1554   1.404       .  A
C1549      H1565   1.083       .  S
C1550      C1551   1.405       .  A
C1550      H1566   1.084       .  S
C1551      C1561   1.403       .  A
C1551      C1552   1.409   1_565  A
C1552      C1558   1.415       .  A
C1552      C1553   1.414       .  A
C1553      C1555   1.408       .  A
C1553      C1554   1.415   1_545  A
C1554      C1562   1.410       .  A
C1555      C1564   1.400       .  A
C1555      C1556   1.404       .  A
C1556      C1557   1.399       .  A
C1556      H1567   1.084       .  S
C1557      C1558   1.403       .  A
C1557      H1568   1.084       .  S
C1558      C1559   1.406       .  A
C1559      C1560   1.404   1_545  A
C1559      H1569   1.084       .  S
C1560      C1561   1.409       .  A
C1561      H1570   1.085       .  S
C1562      C1563   1.406       .  A
C1562      H1571   1.084       .  S
C1563      C1564   1.408   1_565  A
C1564      H1572   1.085       .  S
C1573      C1574   1.398       .  A
C1573      C1578   1.402       .  A
C1573      H1589   1.084       .  S
C1574      C1575   1.404       .  A
C1574      H1590   1.084       .  S
C1575      C1585   1.399       .  A
C1575      C1576   1.408   1_545  A
C1576      C1582   1.415       .  A
C1576      C1577   1.415       .  A
C1577      C1579   1.409       .  A
C1577      C1578   1.414   1_565  A
C1578      C1586   1.405       .  A
C1579      C1588   1.407       .  A
C1579      C1580   1.406       .  A
C1580      C1581   1.403       .  A
C1580      H1591   1.083       .  S
C1581      C1582   1.404       .  A
C1581      H1592   1.083       .  S
C1582      C1583   1.413       .  A
C1583      C1584   1.407       .  A
C1583      H1593   1.084       .  S
C1584      C1585   1.408   1_565  A
C1585      H1594   1.085       .  S
C1586      C1587   1.403   1_545  A
C1586      H1595   1.084       .  S
C1587      C1588   1.412       .  A
C1588      H1596   1.084       .  S
C1597      C1598   1.397       .  A
C1597      C1602   1.404       .  A
C1597      H1613   1.084       .  S
C1598      C1599   1.402       .  A
C1598      H1614   1.084       .  S
C1599      C1609   1.403       .  A
C1599      C1600   1.415       .  A
C1600      C1606   1.409   1_565  A
C1600      C1601   1.412       .  A
C1601      C1603   1.415   1_565  A
C1601      C1602   1.408       .  A
C1602      C1610   1.397       .  A
C1603      C1612   1.410       .  A
C1603      C1604   1.404       .  A
C1604      C1605   1.401       .  A
C1604      H1615   1.083       .  S
C1605      C1606   1.405       .  A
C1605      H1616   1.084       .  S
C1606      C1607   1.402       .  A
C1607      C1608   1.408   1_545  A
C1607      H1617   1.085       .  S
C1608      C1609   1.402       .  A
C1609      H1618   1.085       .  S
C1610      C1611   1.407       .  A
C1610      H1619   1.085       .  S
C1611      C1612   1.406   1_565  A
C1612      H1620   1.084       .  S
C1621      C1622   1.398       .  A
C1621      C1626   1.403       .  A
C1621      H1637   1.084       .  S
C1622      C1623   1.404       .  A
C1622      H1638   1.084       .  S
C1623      C1633   1.398       .  A
C1623      C1624   1.409   1_545  A
C1624      C1630   1.415       .  A
C1624      C1625   1.413       .  A
C1625      C1627   1.410       .  A
C1625      C1626   1.414   1_565  A
C1626      C1634   1.405       .  A
C1627      C1636   1.405       .  A
C1627      C1628   1.405       .  A
C1628      C1629   1.401       .  A
C1628      H1639   1.082       .  S
C1629      C1630   1.403       .  A
C1629      H1640   1.084       .  S
C1630      C1631   1.409       .  A
C1631      C1632   1.405       .  A
C1631      H1641   1.084       .  S
C1632      C1633   1.407   1_565  A
C1633      H1642   1.085       .  S
C1634      C1635   1.404   1_545  A
C1634      H1643   1.084       .  S
C1635      C1636   1.409       .  A
C1636      H1644   1.084       .  S
C1645      C1646   1.399       .  A
C1645      C1650   1.404       .  A
C1645      H1661   1.084       .  S
C1646      C1647   1.403       .  A
C1646      H1662   1.083       .  S
C1647      C1657   1.404       .  A
C1647      C1648   1.412       .  A
C1648      C1654   1.412       .  A
C1648      C1649   1.415       .  A
C1649      C1651   1.411       .  A
C1649      C1650   1.410       .  A
C1650      C1658   1.404       .  A
C1651      C1660   1.408       .  A
C1651      C1652   1.405       .  A
C1652      C1653   1.402       .  A
C1652      H1663   1.083       .  S
C1653      C1654   1.405       .  A
C1653      H1664   1.084       .  S
C1654      C1655   1.408       .  A
C1655      C1656   1.408       .  A
C1655      H1665   1.084       .  S
C1656      C1657   1.406       .  A
C1657      H1666   1.084       .  S
C1658      C1659   1.409       .  A
C1658      H1667   1.082       .  S
C1659      C1660   1.409       .  A
C1660      H1668   1.082       .  S
C1669      C1670   1.402       .  A
C1669      C1674   1.405       .  A
C1669      H1685   1.083       .  S
C1670      C1671   1.404       .  A
C1670      H1686   1.084       .  S
C1671      C1681   1.407       .  A
C1671      C1672   1.413       .  A
C1672      C1678   1.412       .  A
C1672      C1673   1.414       .  A
C1673      C1675   1.411       .  A
C1673      C1674   1.411       .  A
C1674      C1682   1.407       .  A
C1675      C1684   1.404       .  A
C1675      C1676   1.403       .  A
C1676      C1677   1.399       .  A
C1676      H1687   1.084       .  S
C1677      C1678   1.403       .  A
C1677      H1688   1.082       .  S
C1678      C1679   1.403       .  A
C1679      C1680   1.404       .  A
C1679      H1689   1.084       .  S
C1680      C1681   1.407       .  A
C1681      H1690   1.085       .  S
C1682      C1683   1.410       .  A
C1682      H1691   1.083       .  S
C1683      C1684   1.408       .  A
C1684      H1692   1.083       .  S
C1693      C1694   1.400       .  A
C1693      C1698   1.404       .  A
C1693      H1709   1.083       .  S
C1694      C1695   1.404       .  A
C1694      H1710   1.084       .  S
C1695      C1705   1.403       .  A
C1695      C1696   1.412       .  A
C1696      C1702   1.413       .  A
C1696      C1697   1.414       .  A
C1697      C1699   1.411       .  A
C1697      C1698   1.412       .  A
C1698      C1706   1.406       .  A
C1699      C1708   1.404       .  A
C1699      C1700   1.404       .  A
C1700      C1701   1.400       .  A
C1700      H1711   1.084       .  S
C1701      C1702   1.404       .  A
C1701      H1712   1.084       .  S
C1702      C1703   1.406       .  A
C1703      C1704   1.406       .  A
C1703      H1713   1.085       .  S
C1704      C1705   1.405       .  A
C1705      H1714   1.085       .  S
C1706      C1707   1.408       .  A
C1706      H1715   1.083       .  S
C1707      C1708   1.407       .  A
C1708      H1716   1.083       .  S
C1717      C1718   1.403       .  A
C1717      C1722   1.405       .  A
C1717      H1733   1.083       .  S
C1718      C1719   1.405       .  A
C1718      H1734   1.083       .  S
C1719      C1729   1.409       .  A
C1719      C1720   1.411       .  A
C1720      C1726   1.410       .  A
C1720      C1721   1.415       .  A
C1721      C1723   1.411       .  A
C1721      C1722   1.412       .  A
C1722      C1730   1.409       .  A
C1723      C1732   1.404       .  A
C1723      C1724   1.403       .  A
C1724      C1725   1.399       .  A
C1724      H1735   1.084       .  S
C1725      C1726   1.404       .  A
C1725      H1736   1.084       .  S
C1726      C1727   1.403       .  A
C1727      C1728   1.410       .  A
C1727      H1737   1.082       .  S
C1728      C1729   1.410       .  A
C1729      H1738   1.082       .  S
C1730      C1731   1.409       .  A
C1730      H1739   1.084       .  S
C1731      C1732   1.407       .  A
C1732      H1740   1.084       .  S
C1741      C1742   1.401       .  A
C1741      C1746   1.404       .  A
C1741      H1757   1.084       .  S
C1742      C1743   1.405       .  A
C1742      H1758   1.084       .  S
C1743      C1753   1.402       .  A
C1743      C1744   1.408       .  A
C1744      C1750   1.414       .  A
C1744      C1745   1.415       .  A
C1745      C1747   1.410   1_655  A
C1745      C1746   1.414       .  A
C1746      C1754   1.408       .  A
C1747      C1756   1.405       .  A
C1747      C1748   1.404       .  A
C1748      C1749   1.401       .  A
C1748      H1759   1.083       .  S
C1749      C1750   1.403   1_455  A
C1749      H1760   1.083       .  S
C1750      C1751   1.409       .  A
C1751      C1752   1.407       .  A
C1751      H1761   1.083   1_655  S
C1752      C1753   1.412       .  A
C1753      H1762   1.084       .  S
C1754      C1755   1.407       .  A
C1754      H1763   1.084       .  S
C1755      C1756   1.408   1_655  A
C1756      H1764   1.084       .  S
C1765      C1766   1.401       .  A
C1765      C1770   1.405       .  A
C1765      H1781   1.084       .  S
C1766      C1767   1.404       .  A
C1766      H1782   1.083       .  S
C1767      C1777   1.410       .  A
C1767      C1768   1.415   1_655  A
C1768      C1774   1.408       .  A
C1768      C1769   1.413       .  A
C1769      C1771   1.414       .  A
C1769      C1770   1.409   1_455  A
C1770      C1778   1.403       .  A
C1771      C1780   1.404       .  A
C1771      C1772   1.402       .  A
C1772      C1773   1.398       .  A
C1772      H1783   1.084       .  S
C1773      C1774   1.404       .  A
C1773      H1784   1.084       .  S
C1774      C1775   1.398       .  A
C1775      C1776   1.409   1_455  A
C1775      H1785   1.085       .  S
C1776      C1777   1.406       .  A
C1777      H1786   1.084       .  S
C1778      C1779   1.410       .  A
C1778      H1787   1.084       .  S
C1779      C1780   1.404   1_655  A
C1780      H1788   1.085       .  S
C1789      C1790   1.396       .  A
C1789      C1794   1.403       .  A
C1789      H1805   1.084       .  S
C1790      C1791   1.402       .  A
C1790      H1806   1.084       .  S
C1791      C1801   1.401       .  A
C1791      C1792   1.414       .  A
C1792      C1798   1.409   1_655  A
C1792      C1793   1.409       .  A
C1793      C1795   1.414   1_655  A
C1793      C1794   1.408       .  A
C1794      C1802   1.394       .  A
C1795      C1804   1.405       .  A
C1795      C1796   1.403       .  A
C1796      C1797   1.399       .  A
C1796      H1807   1.084       .  S
C1797      C1798   1.405       .  A
C1797      H1808   1.084       .  S
C1798      C1799   1.399       .  A
C1799      C1800   1.408       .  A
C1799      H1809   1.085       .  S
C1800      C1801   1.402   1_455  A
C1801      H1810   1.085       .  S
C1802      C1803   1.406   1_655  A
C1802      H1811   1.085       .  S
C1803      C1804   1.405       .  A
C1804      H1812   1.084       .  S
C1813      C1814   1.395       .  A
C1813      C1818   1.402       .  A
C1813      H1829   1.084       .  S
C1814      C1815   1.401       .  A
C1814      H1830   1.084       .  S
C1815      C1825   1.398       .  A
C1815      C1816   1.414       .  A
C1816      C1822   1.411   1_455  A
C1816      C1817   1.410       .  A
C1817      C1819   1.414   1_455  A
C1817      C1818   1.410       .  A
C1818      C1826   1.395       .  A
C1819      C1828   1.408       .  A
C1819      C1820   1.404       .  A
C1820      C1821   1.402       .  A
C1820      H1831   1.084       .  S
C1821      C1822   1.405       .  A
C1821      H1832   1.084       .  S
C1822      C1823   1.404       .  A
C1823      C1824   1.407   1_655  A
C1823      H1833   1.085       .  S
C1824      C1825   1.399       .  A
C1825      H1834   1.085       .  S
C1826      C1827   1.403       .  A
C1826      H1835   1.085       .  S
C1827      C1828   1.406   1_455  A
C1828      H1836   1.084       .  S
C1837      C1838   1.400       .  A
C1837      C1842   1.404       .  A
C1837      H1853   1.084       .  S
C1838      C1839   1.403       .  A
C1838      H1854   1.083       .  S
C1839      C1849   1.408       .  A
C1839      C1840   1.414   1_455  A
C1840      C1846   1.409       .  A
C1840      C1841   1.412       .  A
C1841      C1843   1.414       .  A
C1841      C1842   1.410   1_655  A
C1842      C1850   1.402       .  A
C1843      C1852   1.403       .  A
C1843      C1844   1.402       .  A
C1844      C1845   1.398       .  A
C1844      H1855   1.084       .  S
C1845      C1846   1.404       .  A
C1845      H1856   1.084       .  S
C1846      C1847   1.399       .  A
C1847      C1848   1.408       .  A
C1847      H1857   1.085       .  S
C1848      C1849   1.405   1_655  A
C1849      H1858   1.084       .  S
C1850      C1851   1.406   1_455  A
C1850      H1859   1.085       .  S
C1851      C1852   1.404       .  A
C1852      H1860   1.085       .  S
C1861      C1862   1.402       .  A
C1861      C1866   1.405       .  A
C1861      H1877   1.084       .  S
C1862      C1863   1.404       .  A
C1862      H1878   1.083       .  S
C1863      C1873   1.411       .  A
C1863      C1864   1.415   1_655  A
C1864      C1870   1.407       .  A
C1864      C1865   1.413       .  A
C1865      C1867   1.414       .  A
C1865      C1866   1.409   1_455  A
C1866      C1874   1.403       .  A
C1867      C1876   1.403       .  A
C1867      C1868   1.402       .  A
C1868      C1869   1.397       .  A
C1868      H1879   1.084       .  S
C1869      C1870   1.404       .  A
C1869      H1880   1.084       .  S
C1870      C1871   1.397       .  A
C1871      C1872   1.410       .  A
C1871      H1881   1.084       .  S
C1872      C1873   1.407   1_455  A
C1873      H1882   1.083       .  S
C1874      C1875   1.410   1_655  A
C1874      H1883   1.085       .  S
C1875      C1876   1.403       .  A
C1876      H1884   1.084       .  S
C1885      C1886   1.402       .  A
C1885      C1890   1.404       .  A
C1885      H1901   1.083       .  S
C1886      C1887   1.405       .  A
C1886      H1902   1.084       .  S
C1887      C1897   1.404       .  A
C1887      C1888   1.409       .  A
C1888      C1894   1.415       .  A
C1888      C1889   1.413       .  A
C1889      C1891   1.408       .  A
C1889      C1890   1.415       .  A
C1890      C1898   1.411       .  A
C1891      C1900   1.396       .  A
C1891      C1892   1.403       .  A
C1892      C1893   1.397       .  A
C1892      H1903   1.084       .  S
C1893      C1894   1.402       .  A
C1893      H1904   1.084       .  S
C1894      C1895   1.405       .  A
C1895      C1896   1.403       .  A
C1895      H1905   1.084       .  S
C1896      C1897   1.409       .  A
C1897      H1906   1.085       .  S
C1898      C1899   1.406       .  A
C1898      H1907   1.084       .  S
C1899      C1900   1.406       .  A
C1900      H1908   1.085       .  S
C1909      C1910   1.400       .  A
C1909      C1914   1.404       .  A
C1909      H1925   1.083       .  S
C1910      C1911   1.404       .  A
C1910      H1926   1.084       .  S
C1911      C1921   1.402       .  A
C1911      C1912   1.410       .  A
C1912      C1918   1.414       .  A
C1912      C1913   1.412       .  A
C1913      C1915   1.409       .  A
C1913      C1914   1.415       .  A
C1914      C1922   1.408       .  A
C1915      C1924   1.398       .  A
C1915      C1916   1.404       .  A
C1916      C1917   1.398       .  A
C1916      H1927   1.084       .  S
C1917      C1918   1.402       .  A
C1917      H1928   1.084       .  S
C1918      C1919   1.404       .  A
C1919      C1920   1.403       .  A
C1919      H1929   1.085       .  S
C1920      C1921   1.407       .  A
C1921      H1930   1.085       .  S
C1922      C1923   1.405       .  A
C1922      H1931   1.084       .  S
C1923      C1924   1.406       .  A
C1924      H1932   1.085       .  S
C1933      C1934   1.402       .  A
C1933      C1938   1.404       .  A
C1933      H1949   1.083       .  S
C1934      C1935   1.405       .  A
C1934      H1950   1.084       .  S
C1935      C1945   1.406       .  A
C1935      C1936   1.410       .  A
C1936      C1942   1.413       .  A
C1936      C1937   1.413       .  A
C1937      C1939   1.408       .  A
C1937      C1938   1.414       .  A
C1938      C1946   1.410       .  A
C1939      C1948   1.397       .  A
C1939      C1940   1.404       .  A
C1940      C1941   1.397       .  A
C1940      H1951   1.084       .  S
C1941      C1942   1.402       .  A
C1941      H1952   1.084       .  S
C1942      C1943   1.402       .  A
C1943      C1944   1.404       .  A
C1943      H1953   1.085       .  S
C1944      C1945   1.409       .  A
C1945      H1954   1.084       .  S
C1946      C1947   1.407       .  A
C1946      H1955   1.084       .  S
C1947      C1948   1.408       .  A
C1948      H1956   1.085       .  S
C1957      C1958   1.404       .  A
C1957      C1962   1.404       .  A
C1957      H1973   1.084       .  S
C1958      C1959   1.407       .  A
C1958      H1974   1.083       .  S
C1959      C1969   1.410       .  A
C1959      C1960   1.410       .  A
C1960      C1966   1.413       .  A
C1960      C1961   1.414       .  A
C1961      C1963   1.409       .  A
C1961      C1962   1.414       .  A
C1962      C1970   1.411       .  A
C1963      C1972   1.396       .  A
C1963      C1964   1.402       .  A
C1964      C1965   1.396       .  A
C1964      H1975   1.084       .  S
C1965      C1966   1.402       .  A
C1965      H1976   1.084       .  S
C1966      C1967   1.402       .  A
C1967      C1968   1.403       .  A
C1967      H1977   1.084       .  S
C1968      C1969   1.413       .  A
C1969      H1978   1.084       .  S
C1970      C1971   1.407       .  A
C1970      H1979   1.084       .  S
C1971      C1972   1.406       .  A
C1972      H1980   1.085       .  S
C1981      C1982   1.398       .  A
C1981      C1986   1.404       .  A
C1981      H1997   1.084       .  S
C1982      C1983   1.402       .  A
C1982      H1998   1.084       .  S
C1983      C1993   1.403       .  A
C1983      C1984   1.414       .  A
C1984      C1990   1.411       .  A
C1984      C1985   1.411       .  A
C1985      C1987   1.414       .  A
C1985      C1986   1.409       .  A
C1986      C1994   1.399       .  A
C1987      C1996   1.406       .  A
C1987      C1988   1.404       .  A
C1988      C1989   1.400       .  A
C1988      H1999   1.083       .  S
C1989      C1990   1.404       .  A
C1989      H2000   1.084       .  S
C1990      C1991   1.402       .  A
C1991      C1992   1.405       .  A
C1991      H2001   1.085       .  S
C1992      C1993   1.402       .  A
C1993      H2002   1.085       .  S
C1994      C1995   1.406       .  A
C1994      H2003   1.085       .  S
C1995      C1996   1.406       .  A
C1996      H2004   1.084       .  S
C2005      C2006   1.400       .  A
C2005      C2010   1.404       .  A
C2005      H2021   1.084       .  S
C2006      C2007   1.403       .  A
C2006      H2022   1.084       .  S
C2007      C2017   1.405       .  A
C2007      C2008   1.414       .  A
C2008      C2014   1.410       .  A
C2008      C2009   1.412       .  A
C2009      C2011   1.413       .  A
C2009      C2010   1.411       .  A
C2010      C2018   1.403       .  A
C2011      C2020   1.403       .  A
C2011      C2012   1.403       .  A
C2012      C2013   1.398       .  A
C2012      H2023   1.084       .  S
C2013      C2014   1.403       .  A
C2013      H2024   1.084       .  S
C2014      C2015   1.399       .  A
C2015      C2016   1.405       .  A
C2015      H2025   1.085       .  S
C2016      C2017   1.404       .  A
C2017      H2026   1.084       .  S
C2018      C2019   1.407       .  A
C2018      H2027   1.085       .  S
C2019      C2020   1.403       .  A
C2020      H2028   1.085       .  S
C2029      C2030   1.399       .  A
C2029      C2034   1.405       .  A
C2029      H2045   1.084       .  S
C2030      C2031   1.403       .  A
C2030      H2046   1.084       .  S
C2031      C2041   1.408       .  A
C2031      C2032   1.414       .  A
C2032      C2038   1.409       .  A
C2032      C2033   1.416       .  A
C2033      C2035   1.416       .  A
C2033      C2034   1.407       .  A
C2034      C2042   1.400       .  A
C2035      C2044   1.414       .  A
C2035      C2036   1.404       .  A
C2036      C2037   1.403       .  A
C2036      H2047   1.083       .  S
C2037      C2038   1.406       .  A
C2037      H2048   1.083       .  S
C2038      C2039   1.406       .  A
C2039      C2040   1.411       .  A
C2039      H2049   1.084       .  S
C2040      C2041   1.407       .  A
C2041      H2050   1.084       .  S
C2042      C2043   1.410       .  A
C2042      H2051   1.085       .  S
C2043      C2044   1.408       .  A
C2044      H2052   1.084       .  S
C2053      C2054   1.398       .  A
C2053      C2058   1.404       .  A
C2053      H2069   1.084       .  S
C2054      C2055   1.402       .  A
C2054      H2070   1.084       .  S
C2055      C2065   1.403       .  A
C2055      C2056   1.414       .  A
C2056      C2062   1.410       .  A
C2056      C2057   1.412       .  A
C2057      C2059   1.414       .  A
C2057      C2058   1.408       .  A
C2058      C2066   1.397       .  A
C2059      C2068   1.408       .  A
C2059      C2060   1.404       .  A
C2060      C2061   1.400       .  A
C2060      H2071   1.083       .  S
C2061      C2062   1.404       .  A
C2061      H2072   1.084       .  S
C2062      C2063   1.402       .  A
C2063      C2064   1.406       .  A
C2063      H2073   1.085       .  S
C2064      C2065   1.404       .  A
C2065      H2074   1.085       .  S
C2066      C2067   1.408       .  A
C2066      H2075   1.085       .  S
C2067      C2068   1.406       .  A
C2068      H2076   1.083       .  S
C2077      C2078   1.401       .  A
C2077      C2082   1.405       .  A
C2077      H2093   1.083       .  S
C2078      C2079   1.404       .  A
C2078      H2094   1.084       .  S
C2079      C2089   1.407       .  A
C2079      C2080   1.412   1_455  A
C2080      C2086   1.412       .  A
C2080      C2081   1.416       .  A
C2081      C2083   1.411       .  A
C2081      C2082   1.412   1_655  A
C2082      C2090   1.408       .  A
C2083      C2092   1.406       .  A
C2083      C2084   1.404       .  A
C2084      C2085   1.401       .  A
C2084      H2095   1.084       .  S
C2085      C2086   1.404       .  A
C2085      H2096   1.084       .  S
C2086      C2087   1.407       .  A
C2087      C2088   1.407       .  A
C2087      H2097   1.085       .  S
C2088      C2089   1.407   1_655  A
C2089      H2098   1.084       .  S
C2090      C2091   1.409   1_455  A
C2090      H2099   1.083       .  S
C2091      C2092   1.409       .  A
C2092      H2100   1.083       .  S
C2101      C2102   1.400       .  A
C2101      C2106   1.404       .  A
C2101      H2117   1.083       .  S
C2102      C2103   1.404       .  A
C2102      H2118   1.083       .  S
C2103      C2113   1.405       .  A
C2103      C2104   1.412   1_655  A
C2104      C2110   1.412       .  A
C2104      C2105   1.414       .  A
C2105      C2107   1.411       .  A
C2105      C2106   1.411   1_455  A
C2106      C2114   1.405       .  A
C2107      C2116   1.405       .  A
C2107      C2108   1.405       .  A
C2108      C2109   1.401       .  A
C2108      H2119   1.084       .  S
C2109      C2110   1.405       .  A
C2109      H2120   1.084       .  S
C2110      C2111   1.407       .  A
C2111      C2112   1.408       .  A
C2111      H2121   1.084       .  S
C2112      C2113   1.405   1_455  A
C2113      H2122   1.084       .  S
C2114      C2115   1.408   1_655  A
C2114      H2123   1.083       .  S
C2115      C2116   1.410       .  A
C2116      H2124   1.083       .  S
C2125      C2126   1.402       .  A
C2125      C2130   1.405       .  A
C2125      H2141   1.083       .  S
C2126      C2127   1.405       .  A
C2126      H2142   1.084       .  S
C2127      C2137   1.408       .  A
C2127      C2128   1.412       .  A
C2128      C2134   1.413   1_655  A
C2128      C2129   1.419       .  A
C2129      C2131   1.412   1_655  A
C2129      C2130   1.412       .  A
C2130      C2138   1.409       .  A
C2131      C2140   1.410       .  A
C2131      C2132   1.405       .  A
C2132      C2133   1.403       .  A
C2132      H2143   1.083       .  S
C2133      C2134   1.405       .  A
C2133      H2144   1.084       .  S
C2134      C2135   1.412       .  A
C2135      C2136   1.408   1_455  A
C2135      H2145   1.084       .  S
C2136      C2137   1.408       .  A
C2137      H2146   1.085       .  S
C2138      C2139   1.409       .  A
C2138      H2147   1.084       .  S
C2139      C2140   1.408   1_655  A
C2140      H2148   1.083       .  S
C2149      C2150   1.398       .  A
C2149      C2154   1.403       .  A
C2149      H2165   1.084       .  S
C2150      C2151   1.403       .  A
C2150      H2166   1.084       .  S
C2151      C2161   1.398       .  A
C2151      C2152   1.409       .  A
C2152      C2158   1.415   1_655  A
C2152      C2153   1.413       .  A
C2153      C2155   1.409   1_655  A
C2153      C2154   1.414       .  A
C2154      C2162   1.406       .  A
C2155      C2164   1.403       .  A
C2155      C2156   1.404       .  A
C2156      C2157   1.400       .  A
C2156      H2167   1.081       .  S
C2157      C2158   1.403       .  A
C2157      H2168   1.083       .  S
C2158      C2159   1.409       .  A
C2159      C2160   1.404       .  A
C2159      H2169   1.084       .  S
C2160      C2161   1.406   1_455  A
C2161      H2170   1.085       .  S
C2162      C2163   1.405   1_655  A
C2162      H2171   1.085       .  S
C2163      C2164   1.407       .  A
C2164      H2172   1.084       .  S
C2173      C2174   1.403       .  A
C2173      C2178   1.406       .  A
C2173      H2189   1.084       .  S
C2174      C2175   1.405       .  A
C2174      H2190   1.084       .  S
C2175      C2185   1.409       .  A
C2175      C2176   1.413   1_655  A
C2176      C2182   1.409       .  A
C2176      C2177   1.411       .  A
C2177      C2179   1.413       .  A
C2177      C2178   1.411   1_455  A
C2178      C2186   1.407       .  A
C2179      C2188   1.398       .  A
C2179      C2180   1.401       .  A
C2180      C2181   1.394       .  A
C2180      H2191   1.084       .  S
C2181      C2182   1.402       .  A
C2181      H2192   1.084       .  S
C2182      C2183   1.395       .  A
C2183      C2184   1.404       .  A
C2183      H2193   1.085       .  S
C2184      C2185   1.408   1_455  A
C2185      H2194   1.084       .  S
C2186      C2187   1.410       .  A
C2186      H2195   1.084       .  S
C2187      C2188   1.400   1_655  A
C2188      H2196   1.085       .  S
C2197      C2198   1.400       .  A
C2197      C2202   1.404       .  A
C2197      H2213   1.083       .  S
C2198      C2199   1.404       .  A
C2198      H2214   1.084       .  S
C2199      C2209   1.406       .  A
C2199      C2200   1.412   1_655  A
C2200      C2206   1.412       .  A
C2200      C2201   1.416       .  A
C2201      C2203   1.411       .  A
C2201      C2202   1.412   1_455  A
C2202      C2210   1.406       .  A
C2203      C2212   1.406       .  A
C2203      C2204   1.405       .  A
C2204      C2205   1.402       .  A
C2204      H2215   1.084       .  S
C2205      C2206   1.405       .  A
C2205      H2216   1.084       .  S
C2206      C2207   1.408       .  A
C2207      C2208   1.409       .  A
C2207      H2217   1.084       .  S
C2208      C2209   1.406   1_455  A
C2209      H2218   1.084       .  S
C2210      C2211   1.407   1_655  A
C2210      H2219   1.083       .  S
C2211      C2212   1.409       .  A
C2212      H2220   1.083       .  S
