geometry optimzed in LAMMPS
_audit_creation_date              2020-11-30 
_audit_creation_method            'lammps2cif' 
_symmetry_space_group_name_H-M    'P1' 
_symmetry_Int_Tables_number       1 
_symmetry_cell_setting            triclinic 
loop_ 
_symmetry_equiv_pos_as_xyz 
  x,y,z 
_cell_length_a                    32.67664836 
_cell_length_b                    32.69887017635218 
_cell_length_c                    32.80192178360144 
_cell_angle_alpha                 89.94856549668643 
_cell_angle_beta                  89.98126986651612 
_cell_angle_gamma                 90.08255965141528 
loop_ 
_atom_site_label 
_atom_site_type_symbol 
_atom_site_fract_x 
_atom_site_fract_y 
_atom_site_fract_z 
_atom_site_charge 
N1          N  0.04114098  0.26599714  0.26671150    -0.03100
C2          C  0.04984888  0.22550850  0.27233722    -0.00500
C3          C  0.06648499  0.20884817  0.23735873    -0.23300
C4          C  0.06713287  0.23907997  0.20870444    -0.23600
C5          C  0.05073735  0.27338240  0.22684918    -0.00600
H6          H  0.07442131  0.17711073  0.23236168     0.13200
H7          H  0.07559721  0.23558159  0.17698864     0.13300
O8          O  0.00200937  0.42512910  0.37925406    -0.79700
O9          O  0.99463310  0.42485572  0.61200344    -0.81300
O10         O  0.06046794  0.37334528  0.49510561    -0.78300
O11         O  0.93027061  0.37727340  0.49268492    -0.76700
O12         O  0.88097123  0.42716943  0.48980628    -0.78500
O13         O  0.11245214  0.42045451  0.49611732    -0.79400
O14         O  0.99450053  0.37516069  0.56315233    -0.80700
O15         O  0.00002182  0.37541939  0.42833596    -0.81000
Eu16       Eu  0.99630581  0.41012573  0.49551456     2.39200
O17         O  0.95505753  0.45240656  0.53635293    -0.88500
O18         O  0.03815101  0.45138283  0.45430418    -0.92100
C19         C  0.00287784  0.38724049  0.39078381     1.02600
C20         C  0.99354847  0.38693062  0.60085973     1.02400
C21         C  0.09848094  0.38328586  0.49566019     1.02300
C22         C  0.89315335  0.38948408  0.48932455     1.00200
H23         H  0.05647847  0.43230088  0.55368244     0.29900
O24         O  0.04019435  0.44983685  0.53640283    -1.00900
H25         H  0.93869073  0.43589097  0.43583466     0.30000
O26         O  0.95548387  0.45246931  0.45347249    -1.03400
O27         O  0.00279088  0.55937164  0.61171311    -0.80700
O28         O  0.99506312  0.56122135  0.37802620    -0.80200
O29         O  0.11488387  0.49356918  0.56337009    -0.78600
O30         O  0.88321083  0.49419298  0.56351610    -0.82000
O31         O  0.88120961  0.49867180  0.42606758    -0.79800
O32         O  0.11294016  0.48404973  0.42517029    -0.78500
O33         O  0.06741981  0.60785316  0.49537456    -0.80000
O34         O  0.93808279  0.61212445  0.49661792    -0.81900
O35         O  0.11734052  0.55879282  0.49250846    -0.78700
O36         O  0.88530463  0.56610213  0.49561972    -0.81300
O37         O  0.06448122  0.49051310  0.61198696    -0.77100
O38         O  0.06259660  0.49096770  0.37684197    -0.77100
O39         O  0.93176352  0.49585269  0.37784924    -0.76800
O40         O  0.93390756  0.49619948  0.61187611    -0.80300
O41         O  0.00213671  0.60905513  0.56250795    -0.79700
O42         O  0.99941799  0.61035317  0.42738758    -0.78000
Eu43       Eu  0.99904186  0.49214725  0.57720930     2.39800
Eu44       Eu  0.99780908  0.49336519  0.41224077     2.39600
Eu45       Eu  0.08297094  0.49057022  0.49447575     2.38400
Eu46       Eu  0.91434406  0.49530003  0.49459604     2.39900
Eu47       Eu  0.00142828  0.57503600  0.49478844     2.39800
O48         O  0.95768593  0.53567255  0.45374520    -0.92400
O49         O  0.04198399  0.53256295  0.53596043    -0.91300
C50         C  0.00302799  0.59716704  0.60013606     1.02700
C51         C  0.99603341  0.59900606  0.38972075     1.01500
C52         C  0.10208756  0.49274288  0.60081192     1.00900
C53         C  0.89624109  0.49540736  0.60080503     1.02900
C54         C  0.89395342  0.49846335  0.38857127     1.01800
C55         C  0.09989320  0.48568310  0.38790100     1.00600
C56         C  0.10493078  0.59645665  0.49404308     1.00700
C57         C  0.89994129  0.60309499  0.49580137     1.03300
H58         H  0.05919299  0.55009195  0.43527926     0.30700
O59         O  0.04214654  0.53335141  0.45268132    -1.04600
H60         H  0.94228752  0.55240586  0.55319435     0.32700
O61         O  0.95839865  0.53473010  0.53593570    -1.07100
N62         N  0.01739431  0.72144134  0.72494893    -0.03100
C63         C  0.02746072  0.71509595  0.76479517    -0.00500
C64         C  0.03622578  0.75152840  0.78407006    -0.23300
C65         C  0.03088348  0.78167886  0.75578563    -0.23600
C66         C  0.01876213  0.76282232  0.72004563    -0.00600
H67         H  0.04396078  0.75578646  0.81587045     0.13200
H68         H  0.03449888  0.81417952  0.76093781     0.13300
N69         N  0.98369302  0.25973188  0.72572082    -0.03100
C70         C  0.98120821  0.21813663  0.72099416    -0.00500
C71         C  0.97251352  0.19904666  0.75761499    -0.23300
C72         C  0.96967253  0.22879523  0.78621676    -0.23600
C73         C  0.97656147  0.26532918  0.76640277    -0.00600
H74         H  0.96967317  0.16650259  0.76307682     0.13200
H75         H  0.96452999  0.22428690  0.81852285     0.13300
N76         N  0.97245133  0.72213680  0.26381396    -0.03100
C77         C  0.96036314  0.71499207  0.22465863    -0.00500
C78         C  0.94125938  0.74895903  0.20840113    -0.23300
C79         C  0.94322789  0.77884526  0.23728001    -0.23600
C80         C  0.96286279  0.76208831  0.27058994    -0.00600
H81         H  0.93070535  0.75277029  0.17735037     0.13200
H82         H  0.93406120  0.81040682  0.23337407     0.13300
O83         O  0.00805327  0.06209306  0.37636059    -0.79700
O84         O  0.00072413  0.05895437  0.60841062    -0.81300
O85         O  0.93668299  0.11064937  0.48754813    -0.88500
O86         O  0.06919732  0.10905643  0.49767517    -0.76700
O87         O  0.11816221  0.05930633  0.49420220    -0.78500
O88         O  0.88596325  0.06252298  0.49056207    -0.79400
O89         O  0.99913730  0.10816529  0.55860658    -0.80700
O90         O  0.00973259  0.10962512  0.42749458    -0.81000
Eu91       Eu  0.00254783  0.07451525  0.49286823     2.39200
O92         O  0.04288550  0.03235726  0.53508527    -0.88500
O93         O  0.96091343  0.03465925  0.45011494    -0.92100
C94         C  0.01118187  0.09931912  0.38962250     1.02600
C95         C  0.99935787  0.09662244  0.59607723     1.02400
C96         C  0.89863411  0.10002303  0.48777674     1.02300
C97         C  0.10678479  0.09716379  0.49651223     1.00200
H98         H  0.94320836  0.05044950  0.55103781     0.29900
O99         O  0.96056356  0.03333417  0.53445276    -1.00900
H100        H  0.06196562  0.05024552  0.43513991     0.30000
O101        O  0.04386804  0.03330620  0.45118390    -1.03400
O102        O  0.00115649  0.92035715  0.60683644    -0.80700
O103        O  0.00069764  0.92436939  0.37534045    -0.80200
O104        O  0.88365269  0.99260766  0.55644172    -0.78600
O105        O  0.11926085  0.98937241  0.55775271    -0.82000
O106        O  0.11932805  0.99056082  0.42842204    -0.79800
O107        O  0.88463482  0.99562295  0.42697194    -0.78500
O108        O  0.93168015  0.87664960  0.48988797    -0.80000
O109        O  0.06784622  0.87455632  0.48766318    -0.81900
O110        O  0.88286386  0.92680966  0.49104761    -0.78700
O111        O  0.11765199  0.92368127  0.49155260    -0.81300
O112        O  0.93127510  0.98951452  0.60738824    -0.77100
O113        O  0.93314155  0.99767269  0.37655750    -0.77100
O114        O  0.07171194  0.99201593  0.37715772    -0.76800
O115        O  0.07041205  0.98857255  0.60802974    -0.80300
O116        O  0.00184816  0.87291472  0.55552396    -0.79700
O117        O  0.00015331  0.87590147  0.42566736    -0.78000
Eu118      Eu  0.00096441  0.99025970  0.57624994     2.39800
Eu119      Eu  0.00229303  0.99318560  0.40803989     2.39600
Eu120      Eu  0.91900694  0.99358416  0.49183444     2.38400
Eu121      Eu  0.08398113  0.99132721  0.49299330     2.39900
Eu122      Eu  0.00040788  0.90946558  0.49103663     2.39800
O123        O  0.04262039  0.95095711  0.45020718    -0.92400
O124        O  0.95915851  0.95046727  0.53318114    -0.91300
C125        C  0.00221253  0.88302388  0.59338580     1.02700
C126        C  0.99976312  0.88678064  0.38805979     1.01500
C127        C  0.89382748  0.99111474  0.59417444     1.00900
C128        C  0.10799139  0.98830095  0.59521677     1.02900
C129        C  0.10897307  0.99108192  0.39069193     1.01800
C130        C  0.89559698  0.99752323  0.38949747     1.00600
C131        C  0.89401675  0.88889969  0.48986824     1.00700
C132        C  0.10571502  0.88606267  0.48924366     1.03300
H133        H  0.94233178  0.93547146  0.43253220     0.30700
O134        O  0.95984325  0.95204595  0.44958226    -1.04600
H135        H  0.05920513  0.93169694  0.54997844     0.32700
O136        O  0.04214917  0.94939204  0.53368423    -1.07100
N137        N  0.23095194  0.22371536  0.48348495    -0.03100
C138        C  0.22561421  0.26493419  0.48750753    -0.00500
C139        C  0.26072069  0.28596573  0.47694853    -0.23300
C140        C  0.28933678  0.25751925  0.46730362    -0.23600
C141        C  0.27091337  0.21982052  0.47172482    -0.00600
H142        H  0.26509425  0.31878403  0.47656921     0.13200
H143        H  0.32107311  0.26356125  0.45995027     0.13300
N144        N  0.77339873  0.22343132  0.46553526    -0.03100
C145        C  0.77901673  0.26225608  0.45149498    -0.00500
C146        C  0.74567731  0.27560595  0.42942585    -0.23300
C147        C  0.71789369  0.24458208  0.43011544    -0.23600
C148        C  0.73511186  0.21323415  0.45256789    -0.00600
H149        H  0.74115861  0.30562194  0.41624263     0.13200
H150        H  0.68706386  0.24577516  0.41809748     0.13300
N151        N  0.76992799  0.76380248  0.47118644    -0.03100
C152        C  0.73042392  0.76881278  0.45901708    -0.00500
C153        C  0.71416109  0.73228071  0.44542895    -0.23300
C154        C  0.74411276  0.70355406  0.44956073    -0.23600
C155        C  0.77767089  0.72332525  0.46591788    -0.00600
H156        H  0.68278392  0.72657627  0.43648952     0.13200
H157        H  0.74090466  0.67107938  0.44398723     0.13300
N158        N  0.23119250  0.76243606  0.50484472    -0.03100
C159        C  0.22604031  0.72150571  0.51045772    -0.00500
C160        C  0.26298204  0.70275309  0.51865784    -0.23300
C161        C  0.29220815  0.73252113  0.51731015    -0.23600
C162        C  0.27231858  0.76858134  0.50810074    -0.00600
H163        H  0.26831465  0.67033741  0.52272591     0.13200
H164        H  0.32488075  0.72803455  0.52035450     0.13300
N165        N  0.73220785  0.00538159  0.26223643    -0.03100
C166        C  0.77387976  0.00750857  0.26471085    -0.00500
C167        C  0.79162488  0.00371286  0.22658853    -0.23300
C168        C  0.76058376  0.99989867  0.19932236    -0.23600
C169        C  0.72493259  0.00094129  0.22161483    -0.00600
H170        H  0.82396746  0.00334709  0.21943506     0.13200
H171        H  0.76350183  0.99709520  0.16656704     0.13300
O172        O  0.43607713  0.11398753  0.49012588    -0.79700
O173        O  0.42923410  0.88112066  0.49253497    -0.81300
O174        O  0.38389354  0.99638114  0.42661357    -0.78300
O175        O  0.38461316  0.99639007  0.56164854    -0.76700
O176        O  0.43406613  0.99264574  0.61072806    -0.78500
O177        O  0.43383207  0.99314017  0.37786467    -0.79400
O178        O  0.38214824  0.93303395  0.49401732    -0.80700
O179        O  0.38631491  0.06445158  0.49150925    -0.81000
Eu180      Eu  0.41868423  0.99760016  0.49404494     2.39200
O181        O  0.45905120  0.95431324  0.53491466    -0.88500
O182        O  0.46116682  0.03823551  0.45261919    -0.92100
C183        C  0.39833088  0.10184897  0.48952325     1.02600
C184        C  0.39209625  0.89502944  0.49325921     1.02400
C185        C  0.39583162  0.99398661  0.38903871     1.02300
C186        C  0.39621740  0.99378545  0.59928336     1.00200
H187        H  0.44167534  0.93791787  0.43610173     0.29900
O188        O  0.45913935  0.95438038  0.45323375    -1.00900
H189        H  0.44410272  0.05551084  0.55312785     0.30000
O190        O  0.46086312  0.03829930  0.53599054    -1.03400
O191        O  0.56676814  0.87608913  0.49021527    -0.80700
O192        O  0.57318421  0.10931603  0.49165877    -0.80200
O193        O  0.50163011  0.92904222  0.37783530    -0.78600
O194        O  0.49789795  0.92885133  0.61107615    -0.82000
O195        O  0.50312232  0.05896882  0.61210331    -0.79800
O196        O  0.50353230  0.06009521  0.37711763    -0.78500
O197        O  0.61935059  0.99813421  0.42677931    -0.80000
O198        O  0.61934524  0.99182593  0.56236464    -0.81900
O199        O  0.56951911  0.99705514  0.37780747    -0.78700
O200        O  0.56951078  0.99385979  0.61139720    -0.81300
O201        O  0.49861207  0.87836850  0.42614863    -0.77100
O202        O  0.50614449  0.11102362  0.42494486    -0.77100
O203        O  0.50805373  0.10964788  0.56386472    -0.76800
O204        O  0.49693569  0.87841616  0.56253895    -0.80300
O205        O  0.61619516  0.92579343  0.48772479    -0.79700
O206        O  0.62056001  0.05789545  0.49333499    -0.78000
Eu207      Eu  0.49936922  0.91087521  0.49414546     2.39800
Eu208      Eu  0.50352641  0.07921659  0.49423298     2.39600
Eu209      Eu  0.50167701  0.99487768  0.41197220     2.38400
Eu210      Eu  0.50160269  0.99435184  0.57655032     2.39900
Eu211      Eu  0.58474077  0.99285657  0.49443646     2.39800
O212        O  0.54382073  0.03555561  0.53530039    -0.92400
O213        O  0.54217242  0.95207791  0.45306829    -0.91300
C214        C  0.60441516  0.88823182  0.48710411     1.02700
C215        C  0.61046446  0.09585747  0.49140258     1.01500
C216        C  0.49967946  0.89140127  0.38894008     1.00900
C217        C  0.49660233  0.89125774  0.59986227     1.02900
C218        C  0.50708437  0.09644370  0.60119186     1.01800
C219        C  0.50602770  0.09786570  0.38758964     1.00600
C220        C  0.60746527  0.99873936  0.38909171     1.00700
C221        C  0.60749474  0.99288800  0.60007395     1.03300
H222        H  0.56087332  0.05195133  0.43662581     0.30700
O223        O  0.54351694  0.03536546  0.45378232    -1.04600
H224        H  0.55927076  0.93385218  0.55274340     0.32700
O225        O  0.54254705  0.95128651  0.53579679    -1.07100
N226        N  0.27120573  0.97881523  0.72531692    -0.03100
C227        C  0.27531274  0.97703074  0.76669828    -0.00500
C228        C  0.23775992  0.97856277  0.78597065    -0.23300
C229        C  0.20897189  0.98110999  0.75619579    -0.23600
C230        C  0.22976375  0.98126305  0.71967174    -0.00600
H231        H  0.23207528  0.97853444  0.81849054     0.13200
H232        H  0.17617193  0.98271333  0.76054519     0.13300
N233        N  0.73257307  0.00619548  0.72577041    -0.03100
C234        C  0.77395969  0.00826208  0.72046454    -0.00500
C235        C  0.79280617  0.02447427  0.75456111    -0.23300
C236        C  0.76284477  0.03172006  0.78241652    -0.23600
C237        C  0.72647514  0.02029232  0.76443134    -0.00600
H238        H  0.82523157  0.02963694  0.75899754     0.13200
H239        H  0.76724728  0.04217747  0.81341326     0.13300
N240        N  0.27243627  0.97215394  0.26233219    -0.03100
C241        C  0.27614197  0.96148888  0.22208101    -0.00500
C242        C  0.23840510  0.95310838  0.20505486    -0.23300
C243        C  0.21010188  0.95899188  0.23471361    -0.23600
C244        C  0.23117139  0.97101635  0.26908382    -0.00600
H245        H  0.23192061  0.94603423  0.17347312     0.13200
H246        H  0.17724974  0.95632410  0.23128694     0.13300
O247        O  0.61542394  0.99697202  0.06535450    -0.79700
O248        O  0.38266203  0.98981541  0.05847981    -0.81300
O249        O  0.50086612  0.06120320  0.11138529    -0.78300
O250        O  0.49784234  0.92774117  0.11109367    -0.76700
O251        O  0.50103698  0.87784987  0.06243947    -0.78500
O252        O  0.50509561  0.11003772  0.06179819    -0.79400
O253        O  0.43153059  0.99344492  0.10850098    -0.80700
O254        O  0.56303220  0.99749901  0.11197462    -0.81000
Eu255      Eu  0.49844105  0.99456474  0.07610323     2.39200
O256        O  0.45837939  0.95284350  0.03369155    -0.88500
O257        O  0.54156990  0.03495773  0.03565993    -0.92100
C258        C  0.60100118  0.99819319  0.10204058     1.02600
C259        C  0.39431974  0.99031969  0.09617213     1.02400
C260        C  0.50447700  0.09874280  0.09965117     1.02300
C261        C  0.49899522  0.88983575  0.10009443     1.00200
H262        H  0.44016463  0.05321925  0.05115499     0.29900
O263        O  0.45735411  0.03612040  0.03433531    -1.00900
H264        H  0.55808223  0.93607107  0.05425365     0.30000
O265        O  0.54183222  0.95298774  0.03640801    -1.03400
O266        O  0.38804395  0.99075797  0.92220274    -0.80700
O267        O  0.62123998  0.99737472  0.92935776    -0.80200
O268        O  0.43675208  0.11194443  0.99382521    -0.78600
O269        O  0.43511880  0.87714749  0.99471050    -0.82000
O270        O  0.56599683  0.87639768  0.99506222    -0.79800
O271        O  0.56553631  0.11217528  0.99665240    -0.78500
O272        O  0.50725867  0.06271592  0.87740589    -0.80000
O273        O  0.50701750  0.92731875  0.87652091    -0.81900
O274        O  0.50327545  0.11181191  0.92688901    -0.78700
O275        O  0.50180789  0.87776228  0.92553890    -0.81300
O276        O  0.38614661  0.06348619  0.98985298    -0.77100
O277        O  0.61595016  0.06374546  0.00245606    -0.77100
O278        O  0.61690118  0.92456898  0.99957305    -0.76800
O279        O  0.38425441  0.92507523  0.99313540    -0.80300
O280        O  0.43977407  0.99428014  0.87494559    -0.79700
O281        O  0.57185549  0.99741569  0.87964346    -0.78000
Eu282      Eu  0.41733376  0.99394105  0.99141632     2.39800
Eu283      Eu  0.58565512  0.99411419  0.99628227     2.39600
Eu284      Eu  0.50120084  0.07657448  0.99387605     2.38400
Eu285      Eu  0.50123632  0.91144849  0.99380054     2.39900
Eu286      Eu  0.50462729  0.99465959  0.91128301     2.39800
O287        O  0.54493614  0.95257767  0.95359554    -0.92400
O288        O  0.46065273  0.03548571  0.95105723    -0.91300
C289        C  0.40188101  0.99160964  0.88525608     1.02700
C290        C  0.60924356  0.99868688  0.89173664     1.01500
C291        C  0.39915424  0.10098312  0.99145772     1.00900
C292        C  0.39718546  0.88759598  0.99514534     1.02900
C293        C  0.60361836  0.88716547  0.99810992     1.01800
C294        C  0.60282262  0.10113244  0.00141304     1.00600
C295        C  0.50604941  0.10046810  0.88922398     1.00700
C296        C  0.50460421  0.88946057  0.88784145     1.03300
H297        H  0.56233016  0.05351885  0.93791563     0.30700
O298        O  0.54493904  0.03589259  0.95404247    -1.04600
H299        H  0.44497957  0.93569212  0.93385886     0.32700
O300        O  0.46119638  0.95310297  0.95131797    -1.07100
N301        N  0.53431826  0.22382752  0.22239259    -0.03100
C302        C  0.54056833  0.21647715  0.26303155    -0.00500
C303        C  0.55528048  0.25093677  0.28235566    -0.23300
C304        C  0.55667735  0.28114842  0.25401548    -0.23600
C305        C  0.54376749  0.26436555  0.21754262    -0.00600
H306        H  0.56101173  0.25457835  0.31466062     0.13200
H307        H  0.56351281  0.31292214  0.26024834     0.13300
N308        N  0.48920466  0.76411101  0.22597203    -0.03100
C309        C  0.48619904  0.72268424  0.22149593    -0.00500
C310        C  0.47644191  0.70387684  0.25799638    -0.23300
C311        C  0.47311773  0.73392663  0.28631865    -0.23600
C312        C  0.48090218  0.77013163  0.26630738    -0.00600
H313        H  0.47287233  0.67140687  0.26347626     0.13200
H314        H  0.46730525  0.72982994  0.31856012     0.13300
N315        N  0.49877011  0.76251353  0.76321788    -0.03100
C316        C  0.49788071  0.72097652  0.76805143    -0.00500
C317        C  0.50007089  0.70125123  0.73086488    -0.23300
C318        C  0.50241708  0.73081068  0.70178834    -0.23600
C319        C  0.50165653  0.76768727  0.72202641    -0.00600
H320        H  0.49982796  0.66857402  0.72556124     0.13200
H321        H  0.50397849  0.72608635  0.66916297     0.13300
N322        N  0.51927668  0.22499877  0.76347338    -0.03100
C323        C  0.52861251  0.21834072  0.72349827    -0.00500
C324        C  0.53584161  0.25463682  0.70332556    -0.23300
C325        C  0.52980564  0.28506170  0.73091853    -0.23600
C326        C  0.51836854  0.26661471  0.76715174    -0.00600
H327        H  0.54287949  0.25859000  0.67130984     0.13200
H328        H  0.53261709  0.31748943  0.72487877     0.13300
O329        O  0.00353721  0.37572372  0.06603436    -0.79700
O330        O  0.99764500  0.60900049  0.06259341    -0.81300
O331        O  0.06117702  0.49080973  0.11559409    -0.78300
O332        O  0.92857483  0.49221430  0.11058464    -0.76700
O333        O  0.88085094  0.49834712  0.05997471    -0.78500
O334        O  0.11222068  0.48819925  0.06810807    -0.79400
O335        O  0.99570048  0.55773417  0.10992907    -0.80700
O336        O  0.00077539  0.42675490  0.11386333    -0.81000
Eu337      Eu  0.99631886  0.49131058  0.07750828     2.39200
O338        O  0.95777496  0.53404649  0.03456317    -0.88500
O339        O  0.03715736  0.44748191  0.03830493    -0.92100
C340        C  0.00507261  0.38921954  0.10319635     1.02600
C341        C  0.99509551  0.59565886  0.09985515     1.02400
C342        C  0.09930517  0.48933753  0.10551680     1.02300
C343        C  0.89148156  0.49678414  0.09796390     1.00200
H344        H  0.05730282  0.54855967  0.05491743     0.29900
O345        O  0.04017865  0.53204926  0.03746924    -1.00900
H346        H  0.93669204  0.43399994  0.05418336     0.30000
O347        O  0.95440366  0.44979961  0.03660333    -1.03400
O348        O  0.00832144  0.60533590  0.92454590    -0.80700
O349        O  0.99161558  0.37394981  0.92785747    -0.80200
O350        O  0.11842551  0.55110905  0.99672300    -0.78600
O351        O  0.88286103  0.55788155  0.99102761    -0.82000
O352        O  0.87852742  0.42912806  0.99459763    -0.79800
O353        O  0.11229830  0.41997335  0.99704943    -0.78500
O354        O  0.07003765  0.49053770  0.88318836    -0.80000
O355        O  0.93369032  0.49067037  0.87637254    -0.81900
O356        O  0.11874100  0.48878513  0.93311509    -0.78700
O357        O  0.88334975  0.49394352  0.92464423    -0.81300
O358        O  0.07231671  0.60355429  0.99445345    -0.77100
O359        O  0.06212327  0.37078990  0.99610964    -0.77100
O360        O  0.92542008  0.37743250  0.00161767    -0.76800
O361        O  0.93227146  0.60771559  0.98962129    -0.80300
O362        O  0.00559732  0.55405621  0.87688274    -0.79700
O363        O  0.99884585  0.42370448  0.87897416    -0.78000
Eu364      Eu  0.00134416  0.57515347  0.99419766     2.39800
Eu365      Eu  0.99551559  0.40614586  0.99658674     2.39600
Eu366      Eu  0.08103550  0.48746158  0.99841369     2.38400
Eu367      Eu  0.91623574  0.49268124  0.99302244     2.39900
Eu368      Eu  0.00047550  0.48942964  0.91309452     2.39800
O369        O  0.95680102  0.44888356  0.95338997    -0.92400
O370        O  0.04168334  0.52979199  0.95575347    -0.91300
C371        C  0.00893844  0.59176417  0.88737457     1.02700
C372        C  0.99401210  0.38641253  0.89037112     1.01500
C373        C  0.10939081  0.58923712  0.99547247     1.00900
C374        C  0.89448186  0.59527553  0.98942291     1.02900
C375        C  0.88841394  0.39153473  0.99979592     1.01800
C376        C  0.09987649  0.38263239  0.99637764     1.00600
C377        C  0.10772302  0.49047974  0.89532267     1.00700
C378        C  0.89558968  0.49275935  0.88710974     1.03300
H379        H  0.05638033  0.42930423  0.93901637     0.30700
O380        O  0.03944734  0.44663789  0.95581488    -1.04600
H381        H  0.94361824  0.55043109  0.93426951     0.32700
O382        O  0.95962758  0.53348357  0.95233234    -1.07100
N383        N  0.76890958  0.52465430  0.22202809    -0.03100
C384        C  0.77421530  0.52922948  0.26305686    -0.00500
C385        C  0.73951952  0.54582550  0.28053258    -0.23300
C386        C  0.71190625  0.55171499  0.24987471    -0.23600
C387        C  0.73042046  0.53862201  0.21440523    -0.00600
H388        H  0.73431067  0.55153512  0.31261621     0.13200
H389        H  0.68058608  0.56182221  0.25348855     0.13300
N390        N  0.22827777  0.47390892  0.22719881    -0.03100
C391        C  0.26977260  0.47136151  0.22153747    -0.00500
C392        C  0.28933711  0.45884332  0.25670412    -0.23300
C393        C  0.26004521  0.45351703  0.28544635    -0.23600
C394        C  0.22324526  0.46258506  0.26707141    -0.00600
H395        H  0.32193339  0.45492162  0.26113472     0.13200
H396        H  0.26515375  0.44549316  0.31706136     0.13300
N397        N  0.22843525  0.50667578  0.76511172    -0.03100
C398        C  0.27005536  0.50630998  0.77009926    -0.00500
C399        C  0.29028111  0.51572288  0.73447671    -0.23300
C400        C  0.26121569  0.52082886  0.70559043    -0.23600
C401        C  0.22379630  0.51510787  0.72438234    -0.00600
H402        H  0.32304742  0.51750208  0.72986323     0.13200
H403        H  0.26685717  0.52632388  0.67352608     0.13300
N404        N  0.76755996  0.50318186  0.76364018    -0.03100
C405        C  0.77182884  0.50068971  0.72232333    -0.00500
C406        C  0.73458038  0.50337958  0.70273450    -0.23300
C407        C  0.70580680  0.50731931  0.73225065    -0.23600
C408        C  0.72625857  0.50699594  0.76908474    -0.00600
H409        H  0.72902030  0.50224677  0.67021761     0.13200
H410        H  0.67307621  0.50928202  0.72750811     0.13300
N411        N  0.26725779  0.26187609  0.00216924    -0.03100
C412        C  0.22630807  0.26409843  0.00990179    -0.00500
C413        C  0.20881106  0.22572918  0.01216386    -0.23300
C414        C  0.23932042  0.19844889  0.00573932    -0.23600
C415        C  0.27452068  0.22092753  0.99928961    -0.00600
H416        H  0.17676214  0.21847680  0.01648805     0.13200
H417        H  0.23618713  0.16548711  0.00517469     0.13300
O418        O  0.50381345  0.42465486  0.11146967    -0.79700
O419        O  0.49938652  0.42254926  0.88219231    -0.81300
O420        O  0.42890912  0.37702756  0.99406463    -0.78300
O421        O  0.56506043  0.37598264  0.99977432    -0.76700
O422        O  0.61529680  0.42482687  0.99731081    -0.78500
O423        O  0.38017690  0.42715941  0.99614851    -0.79400
O424        O  0.50019226  0.37434737  0.93285953    -0.80700
O425        O  0.49629605  0.37556898  0.06208848    -0.81000
Eu426      Eu  0.49741031  0.41046509  0.99683102     2.39200
O427        O  0.53900286  0.45104877  0.95407968    -0.88500
O428        O  0.45718343  0.45243418  0.03879082    -0.92100
C429        C  0.50152980  0.38704213  0.09916625     1.02600
C430        C  0.50062401  0.38500258  0.89522836     1.02400
C431        C  0.39121606  0.38922507  0.99453179     1.02300
C432        C  0.60301798  0.38729296  0.99968028     1.00200
H433        H  0.43883340  0.43488066  0.93819702     0.29900
O434        O  0.45623102  0.45189618  0.95488919    -1.00900
H435        H  0.55766144  0.43494803  0.05453576     0.30000
O436        O  0.54015900  0.45169539  0.03768826    -1.03400
O437        O  0.49566564  0.56227782  0.88121831    -0.80700
O438        O  0.49776001  0.56271442  0.11068313    -0.80200
O439        O  0.38007001  0.49657064  0.93301672    -0.78600
O440        O  0.61499864  0.49316508  0.92940776    -0.82000
O441        O  0.61766601  0.49642180  0.05920113    -0.79800
O442        O  0.38211389  0.49049370  0.06211239    -0.78500
O443        O  0.43276563  0.61152512  0.99479516    -0.80000
O444        O  0.56673130  0.60952481  0.99893296    -0.81900
O445        O  0.38291667  0.56252588  0.99922208    -0.78700
O446        O  0.61603159  0.56012246  0.99515586    -0.81300
O447        O  0.42765348  0.49315288  0.88179611    -0.77100
O448        O  0.43098978  0.49109070  0.11217652    -0.77100
O449        O  0.56970276  0.50014831  0.11015028    -0.76800
O450        O  0.56597955  0.49647559  0.87946670    -0.80300
O451        O  0.50053732  0.61097102  0.93125099    -0.79700
O452        O  0.49662637  0.61123494  0.06031367    -0.78000
Eu453      Eu  0.49754048  0.49275137  0.91226762     2.39800
Eu454      Eu  0.49976907  0.49357717  0.07991428     2.39600
Eu455      Eu  0.41604690  0.49401346  0.99700523     2.38400
Eu456      Eu  0.58126558  0.49246638  0.99504643     2.39900
Eu457      Eu  0.49918741  0.57565042  0.99587697     2.39800
O458        O  0.54084133  0.53430896  0.03708424    -0.92400
O459        O  0.45706672  0.53478715  0.95443870    -0.91300
C460        C  0.49768241  0.59982565  0.89388044     1.02700
C461        C  0.49675643  0.60019134  0.09786566     1.01500
C462        C  0.39037454  0.49541425  0.89532588     1.00900
C463        C  0.60357774  0.49602193  0.89207208     1.02900
C464        C  0.60706126  0.50048800  0.09664880     1.01800
C465        C  0.39338145  0.48997612  0.09956418     1.00600
C466        C  0.39500369  0.60022797  0.99742977     1.00700
C467        C  0.60447202  0.59788455  0.99767812     1.03300
H468        H  0.44065592  0.55201506  0.05524802     0.30700
O469        O  0.45785885  0.53496733  0.03840063    -1.04600
H470        H  0.55679308  0.55140182  0.93701835     0.32700
O471        O  0.53974187  0.53406000  0.95373775    -1.07100
N472        N  0.73047559  0.72357158  0.99963042    -0.03100
C473        C  0.72546562  0.76398477  0.00884319    -0.00500
C474        C  0.76242473  0.78439761  0.00945901    -0.23300
C475        C  0.79171165  0.75626886  0.00128203    -0.23600
C476        C  0.77193829  0.71935629  0.99560120    -0.00600
H477        H  0.76740491  0.81675829  0.01437873     0.13200
H478        H  0.82432605  0.76200954  0.99999379     0.13300
N479        N  0.26893055  0.72346195  0.00987855    -0.03100
C480        C  0.27388743  0.76334505  0.02077774    -0.00500
C481        C  0.23907884  0.77822253  0.03942431    -0.23300
C482        C  0.21108141  0.74726500  0.03907828    -0.23600
C483        C  0.22955065  0.71441330  0.02010108    -0.00600
H484        H  0.23382409  0.80916090  0.04987179     0.13200
H485        H  0.17953232  0.74935176  0.04892846     0.13300
N486        N  0.72736189  0.26437306  0.02532655    -0.03100
C487        C  0.76793291  0.27049506  0.03231769    -0.00500
C488        C  0.78716113  0.23413893  0.04206553    -0.23300
C489        C  0.75769336  0.20470878  0.04243242    -0.23600
C490        C  0.72141204  0.22389806  0.03267387    -0.00600
H491        H  0.81945642  0.22942743  0.04767164     0.13200
H492        H  0.76229154  0.17245835  0.04830825     0.13300
C493        C  0.63471057  0.35504607  0.00491791     0.00300
C494        C  0.64343595  0.34105606  0.04443266    -0.11600
C495        C  0.67467800  0.31239791  0.05150436     0.02500
C496        C  0.69611836  0.29504492  0.01853013     0.00200
C497        C  0.68652960  0.30798731  0.97877347    -0.11500
C498        C  0.65701780  0.33865202  0.97188044     0.02400
H499        H  0.62623086  0.35318605  0.06990597     0.15400
H500        H  0.70260539  0.29456566  0.95318737     0.15400
C501        C  0.65020335  0.35289837  0.93079816     0.37000
C502        C  0.68555480  0.30233119  0.09289517     0.36900
N503        N  0.64486435  0.36436366  0.89784284    -0.43300
N504        N  0.69485570  0.29480939  0.12609554    -0.43300
C505        C  0.36342587  0.63293605  0.00051835     0.00300
C506        C  0.35244715  0.65626613  0.96608186    -0.11600
C507        C  0.32160686  0.68641461  0.96851700     0.02500
C508        C  0.30153006  0.69375823  0.00581573     0.00200
C509        C  0.31394818  0.67177887  0.04046155    -0.11500
C510        C  0.34443855  0.64168896  0.03811962     0.02400
H511        H  0.36750151  0.65049684  0.93719158     0.15400
H512        H  0.29944438  0.67817831  0.06949063     0.15400
C513        C  0.35679466  0.62112187  0.07504806     0.37000
C514        C  0.31085198  0.70944343  0.93263266     0.36900
N515        N  0.36697982  0.60496888  0.10473601    -0.43300
N516        N  0.30227947  0.72812598  0.90390896    -0.43300
C517        C  0.69856924  0.69228030  0.99797811     0.00300
C518        C  0.66742870  0.69206901  0.02770605    -0.11600
C519        C  0.63641088  0.66217092  0.02783635     0.02500
C520        C  0.63673982  0.63030348  0.99873905     0.00200
C521        C  0.66771439  0.63029911  0.96906020    -0.11500
C522        C  0.69756682  0.66139862  0.96764960     0.02400
H523        H  0.66753778  0.71522753  0.05130771     0.15400
H524        H  0.66757418  0.60676901  0.94575977     0.15400
C525        C  0.72470416  0.66217223  0.93303215     0.37000
C526        C  0.60498021  0.66457582  0.05867282     0.36900
N527        N  0.74594563  0.66229701  0.90479793    -0.43300
N528        N  0.57967931  0.66686917  0.08324084    -0.43300
C529        C  0.29671826  0.29529224  0.99892998     0.00300
C530        C  0.32430804  0.29687385  0.96595771    -0.11600
C531        C  0.35474987  0.32748992  0.96342877     0.02500
C532        C  0.35818351  0.35748419  0.99429402     0.00200
C533        C  0.32999775  0.35659155  0.02654608    -0.11500
C534        C  0.30003457  0.32577710  0.02942362     0.02400
H535        H  0.32203981  0.27406958  0.94210834     0.15400
H536        H  0.33252520  0.37914816  0.05064115     0.15400
C537        C  0.27575717  0.32424001  0.06602945     0.37000
C538        C  0.38109858  0.32846161  0.92811052     0.36900
N539        N  0.25716212  0.32335074  0.09602229    -0.43300
N540        N  0.40190545  0.32942460  0.89956546    -0.43300
C541        C  0.70253712  0.50802055  0.80728835     0.00300
C542        C  0.67240737  0.53854852  0.80994840    -0.11600
C543        C  0.63913294  0.53443608  0.83621208     0.02500
C544        C  0.63681911  0.50034565  0.86225915     0.00200
C545        C  0.66860314  0.47144762  0.86213770    -0.11500
C546        C  0.70069459  0.47425453  0.83393187     0.02400
H547        H  0.67323639  0.56421288  0.78894520     0.15400
H548        H  0.66712703  0.44548769  0.88266148     0.15400
C549        C  0.72831109  0.44009688  0.83001533     0.37000
C550        C  0.60731717  0.56498185  0.83480955     0.36900
N551        N  0.74990480  0.41227064  0.82676610    -0.43300
N552        N  0.58181315  0.58939810  0.83288009    -0.43300
C553        C  0.29402894  0.49713461  0.80695801     0.00300
C554        C  0.29236208  0.52401398  0.83996370    -0.11600
C555        C  0.32285276  0.52320999  0.86985396     0.02500
C556        C  0.35636680  0.49596631  0.86591292     0.00200
C557        C  0.35642607  0.46735938  0.83426323    -0.11500
C558        C  0.32518624  0.46724762  0.80530427     0.02400
H559        H  0.26850828  0.54702838  0.84119116     0.15400
H560        H  0.38097828  0.44515750  0.83209898     0.15400
C561        C  0.32640041  0.43710947  0.77313401     0.37000
C562        C  0.31982356  0.55216903  0.90285835     0.36900
N563        N  0.32718336  0.41313879  0.74721407    -0.43300
N564        N  0.31641115  0.57537470  0.92921868    -0.43300
C565        C  0.29484229  0.48187520  0.18562778     0.00300
C566        C  0.32751051  0.50917022  0.19234077    -0.11600
C567        C  0.36006166  0.51209259  0.16501926     0.02500
C568        C  0.35991533  0.48793199  0.12959417     0.00200
C569        C  0.32593056  0.46258845  0.12141991    -0.11500
C570        C  0.29366391  0.45905197  0.14935497     0.02400
H571        H  0.32853206  0.52682449  0.22032472     0.15400
H572        H  0.32528282  0.44440394  0.09379373     0.15400
C573        C  0.26097569  0.43050528  0.14117286     0.37000
C574        C  0.39305009  0.54013344  0.17406669     0.36900
N575        N  0.23449936  0.40793087  0.13455113    -0.43300
N576        N  0.41945812  0.56263433  0.18123078    -0.43300
C577        C  0.64070056  0.50950527  0.12509545     0.00300
C578        C  0.64814856  0.55052035  0.13477149    -0.11600
C579        C  0.67973337  0.56134293  0.16140578     0.02500
C580        C  0.70591495  0.53088536  0.17729292     0.00200
C581        C  0.70064052  0.49021489  0.16470376    -0.11500
C582        C  0.66800389  0.47927353  0.13914417     0.02400
H583        H  0.62848362  0.57412275  0.12226611     0.15400
H584        H  0.71994533  0.46648782  0.17747659     0.15400
C585        C  0.66176909  0.43663566  0.13004518     0.37000
C586        C  0.68319678  0.60363157  0.17358387     0.36900
N587        N  0.65712641  0.40217891  0.12366926    -0.43300
N588        N  0.68530296  0.63752574  0.18349029    -0.43300
C589        C  0.86098665  0.62525142  0.98765079     0.00300
C590        C  0.82687679  0.61942677  0.01325016    -0.11600
C591        C  0.79540583  0.64828203  0.01503168     0.02500
C592        C  0.79638985  0.68211394  0.98847399     0.00200
C593        C  0.82840542  0.68540362  0.95985827    -0.11500
C594        C  0.86102851  0.65792853  0.95986176     0.02400
H595        H  0.82582767  0.59324807  0.03350194     0.15400
H596        H  0.82923518  0.71127450  0.93912737     0.15400
C597        C  0.89404585  0.66401237  0.93121222     0.37000
C598        C  0.76515730  0.64425066  0.04687425     0.36900
N599        N  0.92055324  0.66904519  0.90834239    -0.43300
N600        N  0.74132028  0.64062019  0.07274093    -0.43300
C601        C  0.85456948  0.36343655  0.00810675     0.00300
C602        C  0.85395273  0.34439420  0.04624459    -0.11600
C603        C  0.82204825  0.31824619  0.05689476     0.02500
C604        C  0.79137822  0.30877090  0.02803042     0.00200
C605        C  0.79052668  0.32997126  0.99087022    -0.11500
C606        C  0.82111455  0.35842622  0.98134573     0.02400
H607        H  0.87827311  0.35039250  0.06798284     0.15400
H608        H  0.76761096  0.32274063  0.96824973     0.15400
C609        C  0.81803158  0.38100096  0.94361400     0.37000
C610        C  0.82203321  0.30064157  0.09732992     0.36900
N611        N  0.81519795  0.39911998  0.91341264    -0.43300
N612        N  0.82207666  0.28662668  0.12973829    -0.43300
C613        C  0.20482345  0.67966323  0.00473217     0.00300
C614        C  0.21234769  0.63993560  0.01860612    -0.11600
C615        C  0.18301573  0.60901731  0.01334177     0.02500
C616        C  0.14429411  0.61848404  0.99579096     0.00200
C617        C  0.13860441  0.65731612  0.97874922    -0.11500
C618        C  0.16873803  0.68740511  0.98216916     0.02400
H619        H  0.24009172  0.63336086  0.03537785     0.15400
H620        H  0.11024154  0.66446452  0.96312499     0.15400
C621        C  0.16121772  0.72659853  0.96326085     0.37000
C622        C  0.19362463  0.56839151  0.02704886     0.36900
N623        N  0.15502718  0.75791701  0.94803349    -0.43300
N624        N  0.20273936  0.53571357  0.03710730    -0.43300
C625        C  0.13200535  0.35162452  0.99819666     0.00300
C626        C  0.13675771  0.33008685  0.03454564    -0.11600
C627        C  0.17061033  0.30516207  0.04076193     0.02500
C628        C  0.19992272  0.30038838  0.00945577     0.00200
C629        C  0.19483360  0.32146346  0.97252866    -0.11500
C630        C  0.16065721  0.34662562  0.96652125     0.02400
H631        H  0.11357243  0.33223648  0.05789778     0.15400
H632        H  0.21554822  0.31557356  0.94736744     0.15400
C633        C  0.15249216  0.36253253  0.92628977     0.37000
C634        C  0.17356333  0.28312503  0.07888568     0.36900
N635        N  0.14515259  0.37425452  0.89380612    -0.43300
N636        N  0.17604406  0.26545189  0.10936648    -0.43300
C637        C  0.86341333  0.49506839  0.85437705     0.00300
C638        C  0.83252107  0.52487189  0.85739690    -0.11600
C639        C  0.80201211  0.52894172  0.82726618     0.02500
C640        C  0.79981046  0.50099979  0.79441715     0.00200
C641        C  0.83089359  0.47137985  0.79121044    -0.11500
C642        C  0.86294335  0.46897777  0.81993116     0.02400
H643        H  0.83326582  0.54633967  0.88257943     0.15400
H644        H  0.83028050  0.45004269  0.76596866     0.15400
C645        C  0.89502231  0.43961372  0.81287735     0.37000
C646        C  0.77579241  0.56431568  0.82876919     0.36900
N647        N  0.92090330  0.41649635  0.80614095    -0.43300
N648        N  0.75526939  0.59311276  0.82963935    -0.43300
C649        C  0.13985896  0.49388174  0.86292168     0.00300
C650        C  0.13119410  0.51791348  0.82858098    -0.11600
C651        C  0.15993370  0.52373994  0.79729019     0.02500
C652        C  0.19717194  0.50129266  0.79688167     0.00200
C653        C  0.20499217  0.47592839  0.83098636    -0.11500
C654        C  0.17857163  0.47476552  0.86495310     0.02400
H655        H  0.10253171  0.53461688  0.82740815     0.15400
H656        H  0.23256320  0.45778800  0.83212891     0.15400
C657        C  0.19333795  0.45607898  0.90203336     0.37000
C658        C  0.15104738  0.55612905  0.76896072     0.36900
N659        N  0.20607349  0.44230171  0.93196962    -0.43300
N660        N  0.14232061  0.58277262  0.74745613    -0.43300
C661        C  0.13053220  0.48825932  0.13907062     0.00300
C662        C  0.16684456  0.51096170  0.13516655    -0.11600
C663        C  0.19791440  0.50935745  0.16498503     0.02500
C664        C  0.19536998  0.48080144  0.19756142     0.00200
C665        C  0.15834068  0.45886670  0.20161371    -0.11500
C666        C  0.12525741  0.46488879  0.17500088     0.02400
H667        H  0.16990537  0.53191460  0.10980096     0.15400
H668        H  0.15460181  0.43711933  0.22619102     0.15400
C669        C  0.08604193  0.44825742  0.18682756     0.37000
C670        C  0.22950328  0.54003314  0.16278357     0.36900
N671        N  0.05466241  0.43587421  0.19765677    -0.43300
N672        N  0.25398774  0.56552265  0.16026044    -0.43300
C673        C  0.85923094  0.50317109  0.12942783     0.00300
C674        C  0.84707499  0.47105884  0.15542263    -0.11600
C675        C  0.81768364  0.47750774  0.18636004     0.02500
C676        C  0.79958871  0.51634755  0.19120502     0.00200
C677        C  0.81172263  0.54817588  0.16508986    -0.11500
C678        C  0.84208486  0.54226960  0.13543367     0.02400
H679        H  0.86065345  0.44105854  0.15167711     0.15400
H680        H  0.79864001  0.57833184  0.16929971     0.15400
C681        C  0.85827418  0.57762415  0.11451254     0.37000
C682        C  0.80582901  0.44388734  0.21224277     0.36900
N683        N  0.87228716  0.60610178  0.09883798    -0.43300
N684        N  0.79622750  0.41695658  0.23308108    -0.43300
C685        C  0.50678377  0.29149332  0.80312519     0.00300
C686        C  0.52650846  0.28519359  0.84046957    -0.11600
C687        C  0.52396254  0.31449933  0.87158940     0.02500
C688        C  0.50199316  0.35141106  0.86499528     0.00200
C689        C  0.48017187  0.35624238  0.82870900    -0.11500
C690        C  0.48190945  0.32668081  0.79816493     0.02400
H691        H  0.54592072  0.25863416  0.84452839     0.15400
H692        H  0.46189747  0.38352622  0.82397916     0.15400
C693        C  0.45888518  0.33431881  0.76132764     0.37000
C694        C  0.54611147  0.30658070  0.90885961     0.36900
N695        N  0.44073882  0.34112053  0.73180370    -0.43300
N696        N  0.56373933  0.29959149  0.93865096    -0.43300
C697        C  0.49418957  0.69676622  0.80589030     0.00300
C698        C  0.46343592  0.66664582  0.80654109    -0.11600
C699        C  0.46401819  0.63504091  0.83505760     0.02500
C700        C  0.49579734  0.63317809  0.86380713     0.00200
C701        C  0.52501060  0.66485492  0.86523221    -0.11500
C702        C  0.52477456  0.69633927  0.83612526     0.02400
H703        H  0.43970607  0.66692637  0.78340447     0.15400
H704        H  0.54905549  0.66397022  0.88801262     0.15400
C705        C  0.55766754  0.72583839  0.83615584     0.37000
C706        C  0.43134949  0.60525189  0.83463826     0.36900
N707        N  0.58408809  0.74944804  0.83625102    -0.43300
N708        N  0.40512161  0.58144895  0.83453486    -0.43300
C709        C  0.49617698  0.63344174  0.12805298     0.00300
C710        C  0.47075072  0.66762685  0.12149898    -0.11600
C711        C  0.46868424  0.69925143  0.15027884     0.02500
C712        C  0.49377699  0.69757981  0.18506897     0.00200
C713        C  0.52095557  0.66473625  0.19004430    -0.11500
C714        C  0.52163065  0.63238589  0.16259084     0.02400
H715        H  0.45103019  0.66861850  0.09491626     0.15400
H716        H  0.53996208  0.66313669  0.21713421     0.15400
C717        C  0.54760639  0.59789638  0.17159175     0.37000
C718        C  0.43851367  0.73106215  0.14527437     0.36900
N719        N  0.56766648  0.56989766  0.17954300    -0.43300
N720        N  0.41429438  0.75659964  0.14165561    -0.43300
C721        C  0.51044380  0.35442221  0.12869677     0.00300
C722        C  0.54855220  0.35601965  0.14778632    -0.11600
C723        C  0.56155200  0.32445844  0.17310080     0.02500
C724        C  0.53511571  0.29122841  0.18192915     0.00200
C725        C  0.49741908  0.28864037  0.16138408    -0.11500
C726        C  0.48538993  0.31955473  0.13402584     0.02400
H727        H  0.56894503  0.38156813  0.14177301     0.15400
H728        H  0.47680619  0.26342329  0.16772413     0.15400
C729        C  0.44694901  0.31556875  0.11269379     0.37000
C730        C  0.60268741  0.32681670  0.18906361     0.36900
N731        N  0.41630060  0.31248686  0.09528974    -0.43300
N732        N  0.63569176  0.32892225  0.20166144    -0.43300
C733        C  0.63164900  0.13450144  0.00883669     0.00300
C734        C  0.64610704  0.13961752  0.04860791    -0.11600
C735        C  0.67149561  0.17248105  0.05828620     0.02500
C736        C  0.68352026  0.20026897  0.02754641     0.00200
C737        C  0.66679625  0.19675814  0.98837402    -0.11500
C738        C  0.64040151  0.16433821  0.97896146     0.02400
H739        H  0.63739138  0.11795453  0.07216568     0.15400
H740        H  0.67640913  0.21764352  0.96451852     0.15400
C741        C  0.62403857  0.16136586  0.93817860     0.37000
C742        C  0.68605620  0.17637872  0.09969436     0.36900
N743        N  0.61092154  0.15921422  0.90548325    -0.43300
N744        N  0.69769362  0.17955123  0.13285827    -0.43300
C745        C  0.36685279  0.85366975  0.99899818     0.00300
C746        C  0.32837059  0.85731012  0.98039062    -0.11600
C747        C  0.29883477  0.82644809  0.98465999     0.02500
C748        C  0.30741002  0.79106845  0.00808248     0.00200
C749        C  0.34611508  0.78656367  0.02540348    -0.11500
C750        C  0.37566207  0.81742309  0.02137276     0.02400
H751        H  0.32119551  0.88443327  0.96273840     0.15400
H752        H  0.35246173  0.76002534  0.04423013     0.15400
C753        C  0.41352061  0.81202969  0.04333138     0.37000
C754        C  0.25943129  0.83204927  0.96540833     0.36900
N755        N  0.44365647  0.80726810  0.06118828    -0.43300
N756        N  0.22768754  0.83624788  0.95033878    -0.43300
C757        C  0.63285478  0.85326736  0.00156123     0.00300
C758        C  0.65650555  0.85023724  0.03692093    -0.11600
C759        C  0.68274002  0.81709099  0.04268067     0.02500
C760        C  0.68705446  0.78734540  0.01173069     0.00200
C761        C  0.66142087  0.78886083  0.97758009    -0.11500
C762        C  0.63398019  0.82133909  0.97253944     0.02400
H763        H  0.65439026  0.87374356  0.06007689     0.15400
H764        H  0.66491514  0.76641553  0.95350381     0.15400
C765        C  0.60910897  0.82257560  0.93618650     0.37000
C766        C  0.70621014  0.81491848  0.07996401     0.36900
N767        N  0.58916403  0.82359384  0.90706542    -0.43300
N768        N  0.72496550  0.81309681  0.10983269    -0.43300
C769        C  0.36945930  0.13468908  0.99046632     0.00300
C770        C  0.37342854  0.16674730  0.01884126    -0.11600
C771        C  0.34492952  0.19868419  0.01993477     0.02500
C772        C  0.31323897  0.19970638  0.99092698     0.00200
C773        C  0.31185036  0.16973786  0.96025926    -0.11500
C774        C  0.33880969  0.13674392  0.96050642     0.02400
H775        H  0.39739726  0.16551295  0.04169187     0.15400
H776        H  0.28706610  0.17011415  0.93824086     0.15400
C777        C  0.33374868  0.10500455  0.93032681     0.37000
C778        C  0.34612349  0.22712892  0.05354182     0.36900
N779        N  0.32946670  0.07942925  0.90633762    -0.43300
N780        N  0.34678071  0.24964421  0.08072756    -0.43300
C781        C  0.50883670  0.13308218  0.85730771     0.00300
C782        C  0.54280948  0.13389476  0.83107911    -0.11600
C783        C  0.54704420  0.16439842  0.80106279     0.02500
C784        C  0.51615716  0.19424433  0.79549328     0.00200
C785        C  0.48243436  0.19376599  0.82210569    -0.11500
C786        C  0.47875789  0.16385350  0.85291652     0.02400
H787        H  0.56670516  0.11119721  0.83475402     0.15400
H788        H  0.45869720  0.21659124  0.81848471     0.15400
C789        C  0.44313474  0.16460792  0.87884522     0.37000
C790        C  0.58444069  0.16572179  0.77772719     0.36900
N791        N  0.41449468  0.16530863  0.89956307    -0.43300
N792        N  0.61445568  0.16702095  0.75904093    -0.43300
C793        C  0.50379529  0.85709551  0.85530804     0.00300
C794        C  0.47528272  0.82493365  0.85828805    -0.11600
C795        C  0.47185182  0.79487412  0.82765259     0.02500
C796        C  0.49939360  0.79444279  0.79433400     0.00200
C797        C  0.52794324  0.82659986  0.79146170    -0.11500
C798        C  0.52943631  0.85826024  0.82050695     0.02400
H799        H  0.45410652  0.82441588  0.88375218     0.15400
H800        H  0.54921884  0.82719652  0.76622904     0.15400
C801        C  0.55707144  0.89187559  0.81309685     0.37000
C802        C  0.43753500  0.76722176  0.82950553     0.36900
N803        N  0.57855243  0.91911588  0.80601408    -0.43300
N804        N  0.40949989  0.74561692  0.83112503    -0.43300
C805        C  0.49738117  0.85802079  0.13317121     0.00300
C806        C  0.52351570  0.82381802  0.13178961    -0.11600
C807        C  0.52312253  0.79383898  0.16291855     0.02500
C808        C  0.49382862  0.79577857  0.19478150     0.00200
C809        C  0.46795420  0.83005053  0.19587286    -0.11500
C810        C  0.47062033  0.86155041  0.16692345     0.02400
H811        H  0.54558969  0.82141920  0.10721336     0.15400
H812        H  0.44530840  0.83246298  0.21967673     0.15400
C813        C  0.44607366  0.89753997  0.17371757     0.37000
C814        C  0.55508272  0.76352561  0.16287659     0.36900
N815        N  0.42718714  0.92659263  0.18068969    -0.43300
N816        N  0.58122927  0.73968782  0.16266050    -0.43300
C817        C  0.50998757  0.13122938  0.13149008     0.00300
C818        C  0.53779605  0.16311471  0.12372599    -0.11600
C819        C  0.54691587  0.19272742  0.15342385     0.02500
C820        C  0.52482027  0.19396103  0.19065315     0.00200
C821        C  0.49604478  0.16269103  0.19786120    -0.11500
C822        C  0.49054090  0.13028290  0.17011320     0.02400
H823        H  0.55481983  0.16321580  0.09531192     0.15400
H824        H  0.47907072  0.16235205  0.22617938     0.15400
C825        C  0.46732204  0.09529157  0.18370150     0.37000
C826        C  0.58213413  0.21839356  0.14637724     0.36900
N827        N  0.45004896  0.06687272  0.19586877    -0.43300
N828        N  0.61083998  0.23831523  0.14054427    -0.43300
C829        C  0.36352692  0.98421793  0.12821409     0.00300
C830        C  0.34713407  0.94502505  0.13305041    -0.11600
C831        C  0.32127365  0.93609645  0.16574563     0.02500
C832        C  0.31189187  0.96666806  0.19488862     0.00200
C833        C  0.32887754  0.00582441  0.19029647    -0.11500
C834        C  0.35408316  0.01492302  0.15682795     0.02400
H835        H  0.35493909  0.92118691  0.11140056     0.15400
H836        H  0.32000752  0.03002418  0.21107841     0.15400
C837        C  0.36658095  0.05670981  0.15009991     0.37000
C838        C  0.30415709  0.89537048  0.16827422     0.36900
N839        N  0.37577782  0.09037972  0.14414800    -0.43300
N840        N  0.29059593  0.86271091  0.17025128    -0.43300
C841        C  0.68981973  0.01476347  0.79000213     0.00300
C842        C  0.68238877  0.97536206  0.80549049    -0.11600
C843        C  0.65850718  0.96975935  0.84061197     0.02500
C844        C  0.63971186  0.00363265  0.85918642     0.00200
C845        C  0.64604235  0.04282418  0.84310626    -0.11500
C846        C  0.67196729  0.04875519  0.80967518     0.02400
H847        H  0.69812303  0.94937340  0.79224581     0.15400
H848        H  0.63165283  0.06897319  0.85752473     0.15400
C849        C  0.68248483  0.09011826  0.79831456     0.37000
C850        C  0.65550135  0.92953772  0.85854791     0.36900
N851        N  0.69151468  0.12332682  0.79002317    -0.43300
N852        N  0.65327780  0.89748876  0.87337810    -0.43300
C853        C  0.31311845  0.97669123  0.79099651     0.00300
C854        C  0.33944351  0.01051638  0.78976206    -0.11600
C855        C  0.36930410  0.01575634  0.81996678     0.02500
C856        C  0.37225989  0.98712204  0.85206645     0.00200
C857        C  0.34733645  0.95233147  0.85202738    -0.11500
C858        C  0.31815413  0.94671956  0.82162161     0.02400
H859        H  0.33518412  0.03384719  0.76663650     0.15400
H860        H  0.35064463  0.92955464  0.87588961     0.15400
C861        C  0.29349333  0.90996003  0.82232912     0.37000
C862        C  0.39474444  0.05188046  0.81889418     0.36900
N863        N  0.27386688  0.88046857  0.82240973    -0.43300
N864        N  0.41512609  0.08084021  0.81807597    -0.43300
C865        C  0.52530324  0.18202564  0.28820386     0.00300
C866        C  0.49829138  0.19215253  0.32007918    -0.11600
C867        C  0.49165113  0.16570005  0.35290246     0.02500
C868        C  0.51089361  0.12722215  0.35345021     0.00200
C869        C  0.53554880  0.11579505  0.31996790    -0.11500
C870        C  0.54334690  0.14300941  0.28777816     0.02400
H871        H  0.48434635  0.22225342  0.32063178     0.15400
H872        H  0.55031720  0.08610026  0.31981558     0.15400
C873        C  0.57118317  0.13085712  0.25584583     0.37000
C874        C  0.46580926  0.17947121  0.38582650     0.36900
N875        N  0.59312562  0.12077596  0.23005211    -0.43300
N876        N  0.44538227  0.19126920  0.41211574    -0.43300
C877        C  0.48661728  0.80771742  0.28999381     0.00300
C878        C  0.52537157  0.81415795  0.30724101    -0.11600
C879        C  0.53019527  0.84011834  0.34078083     0.02500
C880        C  0.49614569  0.86160815  0.35591563     0.00200
C881        C  0.45770496  0.85635870  0.33779706    -0.11500
C882        C  0.45243489  0.82850547  0.30600666     0.02400
H883        H  0.55122633  0.79632171  0.29659208     0.15400
H884        H  0.43144887  0.87270251  0.34977861     0.15400
C885        C  0.41138213  0.81914721  0.29261040     0.37000
C886        C  0.56975804  0.84271833  0.36020716     0.36900
N887        N  0.37859047  0.81110698  0.28196665    -0.43300
N888        N  0.60156565  0.84446064  0.37561530    -0.43300
C889        C  0.51322206  0.12561950  0.63464197     0.00300
C890        C  0.48160768  0.13251267  0.66279524    -0.11600
C891        C  0.48712633  0.15974423  0.69538951     0.02500
C892        C  0.52509563  0.17981522  0.70028502     0.00200
C893        C  0.55746179  0.17025414  0.67379797    -0.11500
C894        C  0.55188918  0.14325944  0.64135637     0.02400
H895        H  0.45223541  0.11761650  0.65851864     0.15400
H896        H  0.58666495  0.18569974  0.67722508     0.15400
C897        C  0.58639247  0.13372788  0.61559625     0.37000
C898        C  0.45251701  0.16892321  0.72114429     0.36900
N899        N  0.61411029  0.12580672  0.59514012    -0.43300
N900        N  0.42457113  0.17609929  0.74159577    -0.43300
C901        C  0.49689267  0.86109122  0.63291439     0.00300
C902        C  0.53484877  0.84726260  0.64689759    -0.11600
C903        C  0.53724584  0.81936364  0.67903487     0.02500
C904        C  0.50123702  0.80609611  0.69874527     0.00200
C905        C  0.46322934  0.82115253  0.68570702    -0.11500
C906        C  0.46076864  0.84828696  0.65268317     0.02400
H907        H  0.56260328  0.85746359  0.63188054     0.15400
H908        H  0.43535768  0.80937212  0.69937335     0.15400
C909        C  0.42094194  0.86028231  0.63792249     0.37000
C910        C  0.57676263  0.80280365  0.68971641     0.36900
N911        N  0.38886689  0.86918829  0.62593980    -0.43300
N912        N  0.60835694  0.78940363  0.69832006    -0.43300
C913        C  0.36402426  0.99032831  0.35620681     0.00300
C914        C  0.36961073  0.96104423  0.32545264    -0.11600
C915        C  0.34014680  0.95465951  0.29483352     0.02500
C916        C  0.30471550  0.97959259  0.29246647     0.00200
C917        C  0.29966300  0.00970600  0.32292385    -0.11500
C918        C  0.32807498  0.01434032  0.35508587     0.02400
H919        H  0.39642325  0.94153358  0.32645535     0.15400
H920        H  0.27305672  0.02936937  0.32209674     0.15400
C921        C  0.31960423  0.04391542  0.38659952     0.37000
C922        C  0.34593863  0.91988294  0.26864406     0.36900
N923        N  0.31267423  0.06719135  0.41222896    -0.43300
N924        N  0.35136380  0.89158247  0.24825571    -0.43300
C925        C  0.63976467  0.99478237  0.63267668     0.00300
C926        C  0.65133521  0.03311276  0.64812471    -0.11600
C927        C  0.68198841  0.03695752  0.67803724     0.02500
C928        C  0.70136260  0.00201624  0.69434923     0.00200
C929        C  0.69008171  0.96344703  0.67895616    -0.11500
C930        C  0.65972080  0.95965357  0.64828685     0.02400
H931        H  0.63682958  0.06031768  0.63623543     0.15400
H932        H  0.70501157  0.93638080  0.69085408     0.15400
C933        C  0.64954523  0.91948208  0.63321616     0.37000
C934        C  0.69495940  0.07735382  0.68998660     0.36900
N935        N  0.64155022  0.88724582  0.62103195    -0.43300
N936        N  0.70593736  0.10974874  0.69903678    -0.43300
C937        C  0.36405014  0.99087452  0.63179590     0.00300
C938        C  0.37025844  0.96446360  0.66510250    -0.11600
C939        C  0.33977116  0.95822187  0.69492737     0.02500
C940        C  0.30326028  0.98185872  0.69428988     0.00200
C941        C  0.29816894  0.00925391  0.66165575    -0.11500
C942        C  0.32649264  0.01210846  0.62967362     0.02400
H943        H  0.39825158  0.94674263  0.66660775     0.15400
H944        H  0.27163107  0.02862923  0.66062202     0.15400
C945        C  0.31469716  0.03554651  0.59436772     0.37000
C946        C  0.34628292  0.92520546  0.72333542     0.36900
N947        N  0.30360222  0.05320320  0.56587983    -0.43300
N948        N  0.35296498  0.89820650  0.74517444    -0.43300
C949        C  0.62977386  0.99896032  0.13593876     0.00300
C950        C  0.64259713  0.03662361  0.15177652    -0.11600
C951        C  0.67023554  0.03789658  0.18428495     0.02500
C952        C  0.68537581  0.00107895  0.20074052     0.00200
C953        C  0.67071446  0.96354123  0.18615829    -0.11500
C954        C  0.64238767  0.96229309  0.15440633     0.02400
H955        H  0.63169119  0.06486354  0.13823446     0.15400
H956        H  0.68319619  0.93519627  0.19799540     0.15400
C957        C  0.62717068  0.92320448  0.14053854     0.37000
C958        C  0.68483076  0.07706428  0.19858069     0.36900
N959        N  0.61433043  0.89215266  0.12944920    -0.43300
N960        N  0.69656091  0.10835162  0.21023502    -0.43300
C961        C  0.70168297  0.00449481  0.29474677     0.00300
C962        C  0.67052533  0.97484117  0.29364075    -0.11600
C963        C  0.63907353  0.97383101  0.32279527     0.02500
C964        C  0.63955007  0.00090582  0.35632422     0.00200
C965        C  0.67086499  0.03062486  0.35788170    -0.11500
C966        C  0.70089154  0.03340274  0.32686274     0.02400
H967        H  0.67049486  0.95230155  0.26955359     0.15400
H968        H  0.67094902  0.05271902  0.38251084     0.15400
C969        C  0.72873818  0.06763957  0.32713891     0.37000
C970        C  0.60622009  0.94496370  0.31697515     0.36900
N971        N  0.75095813  0.09523153  0.32692001    -0.43300
N972        N  0.57940748  0.92253519  0.31145146    -0.43300
C973        C  0.29572406  0.80577773  0.49744082     0.00300
C974        C  0.29568901  0.83870705  0.52450689    -0.11600
C975        C  0.32596514  0.86876988  0.52261298     0.02500
C976        C  0.35792241  0.86557090  0.49378822     0.00200
C977        C  0.35693727  0.83382988  0.46517385    -0.11500
C978        C  0.32596095  0.80421701  0.46655808     0.02400
H979        H  0.27407746  0.83965890  0.54922905     0.15400
H980        H  0.38074288  0.83178850  0.44220488     0.15400
C981        C  0.32709027  0.77115566  0.43738279     0.37000
C982        C  0.32487287  0.90077591  0.55276795     0.36900
N983        N  0.32806431  0.74448607  0.41423383    -0.43300
N984        N  0.32308936  0.92608674  0.57726503    -0.43300
C985        C  0.70310662  0.80295172  0.46995238     0.00300
C986        C  0.67288059  0.79514159  0.49952511    -0.11600
C987        C  0.63976243  0.82168160  0.50498529     0.02500
C988        C  0.63727934  0.85766904  0.48146855     0.00200
C989        C  0.66813401  0.86594663  0.45256962    -0.11500
C990        C  0.70040524  0.83853574  0.44608193     0.02400
H991        H  0.67421433  0.76706354  0.51714231     0.15400
H992        H  0.66619700  0.89330336  0.43393071     0.15400
C993        C  0.72860220  0.84619764  0.41307009     0.37000
C994        C  0.60887518  0.81110537  0.53470132     0.36900
N995        N  0.75086425  0.85236845  0.38631048    -0.43300
N996        N  0.58409565  0.80223678  0.55834345    -0.43300
C997        C  0.64464015  0.12538834  0.48657924     0.00300
C998        C  0.68086187  0.11210998  0.46712901    -0.11600
C999        C  0.71250736  0.13952427  0.45785824     0.02500
C1000       C  0.70871133  0.18071641  0.46925197     0.00200
C1001       C  0.67391620  0.19342131  0.49094928    -0.11500
C1002       C  0.64171013  0.16658509  0.49902120     0.02400
H1003       H  0.68368845  0.08062390  0.45717858     0.15400
H1004       H  0.67090460  0.22531262  0.49959817     0.15400
C1005       C  0.60583712  0.18278927  0.51899442     0.37000
C1006       C  0.74727272  0.12522030  0.43479797     0.36900
N1007       N  0.57713808  0.19607573  0.53484217    -0.43300
N1008       N  0.77532231  0.11370317  0.41660164    -0.43300
C1009       C  0.29682056  0.18294997  0.47330934     0.00300
C1010       C  0.30482660  0.16606145  0.51177426    -0.11600
C1011       C  0.33977200  0.14211547  0.51820426     0.02500
C1012       C  0.36554097  0.13226072  0.48523635     0.00200
C1013       C  0.35678735  0.14777785  0.44645049    -0.11500
C1014       C  0.32350542  0.17395777  0.44051034     0.02400
H1015       H  0.28618838  0.17503340  0.53763218     0.15400
H1016       H  0.37636109  0.13992608  0.42092583     0.15400
C1017       C  0.31881701  0.19336701  0.40117758     0.37000
C1018       C  0.35124416  0.13190721  0.55942977     0.36900
N1019       N  0.31494426  0.20930636  0.36989542    -0.43300
N1020       N  0.36092075  0.12455855  0.59256657    -0.43300
C1021       C  0.79847523  0.99507816  0.68492227     0.00300
C1022       C  0.79182258  0.01321672  0.64694777    -0.11600
C1023       C  0.82160587  0.01090385  0.61628384     0.02500
C1024       C  0.85969694  0.99130677  0.62410866     0.00200
C1025       C  0.86495771  0.97089572  0.66125717    -0.11500
C1026       C  0.83447653  0.97181463  0.69110149     0.02400
H1027       H  0.76446296  0.03122042  0.64191125     0.15400
H1028       H  0.89300865  0.95417053  0.66708681     0.15400
C1029       C  0.84126565  0.94925944  0.72839676     0.37000
C1030       C  0.81223627  0.03008444  0.57775975     0.36900
N1031       N  0.84665076  0.93115628  0.75824321    -0.43300
N1032       N  0.80386672  0.04472582  0.54675040    -0.43300
C1033       C  0.14134131  0.98665203  0.62516809     0.00300
C1034       C  0.15513915  0.94850145  0.63902813    -0.11600
C1035       C  0.18760679  0.94593379  0.66684439     0.02500
C1036       C  0.20655936  0.98195042  0.68115248     0.00200
C1037       C  0.19306892  0.01996352  0.66652802    -0.11500
C1038       C  0.16179008  0.02243855  0.63759353     0.02400
H1039       H  0.14015086  0.92080585  0.62857414     0.15400
H1040       H  0.20593074  0.04790503  0.67893575     0.15400
C1041       C  0.15070171  0.06204182  0.62162995     0.37000
C1042       C  0.19912453  0.90635368  0.68266618     0.36900
N1043       N  0.14205083  0.09380762  0.60872774    -0.43300
N1044       N  0.20838080  0.87480285  0.69571705    -0.43300
C1045       C  0.14312339  0.98990417  0.36149389     0.00300
C1046       C  0.17536481  0.96232355  0.36872268    -0.11600
C1047       C  0.20755088  0.95830066  0.34087978     0.02500
C1048       C  0.20821673  0.98302809  0.30580329     0.00200
C1049       C  0.17788500  0.01305027  0.30053958    -0.11500
C1050       C  0.14511820  0.01628873  0.32765395     0.02400
H1051       H  0.17430638  0.94238124  0.39516258     0.15400
H1052       H  0.17821988  0.03198926  0.27335318     0.15400
C1053       C  0.11372854  0.04628535  0.31956963     0.37000
C1054       C  0.23753660  0.92659152  0.34735278     0.36900
N1055       N  0.08861383  0.07025478  0.31276420    -0.43300
N1056       N  0.26153833  0.90116907  0.35275030    -0.43300
C1057       C  0.86213346  0.00113869  0.35968189     0.00300
C1058       C  0.86542118  0.03109490  0.32949743    -0.11600
C1059       C  0.83412124  0.03676904  0.30126090     0.02500
C1060       C  0.79975572  0.01044362  0.30138937     0.00200
C1061       C  0.79509964  0.98208776  0.33299361    -0.11500
C1062       C  0.82540970  0.97817209  0.36291142     0.02400
H1063       H  0.89191328  0.05100187  0.32885395     0.15400
H1064       H  0.76855406  0.96215744  0.33361584     0.15400
C1065       C  0.81781204  0.95062471  0.39648696     0.37000
C1066       C  0.83744043  0.07044010  0.27286344     0.36900
N1067       N  0.81096660  0.92939778  0.42389778    -0.43300
N1068       N  0.83968833  0.09762714  0.25035977    -0.43300
C1069       C  0.19958919  0.79321047  0.50027950     0.00300
C1070       C  0.17804615  0.79729717  0.46338319    -0.11600
C1071       C  0.14694776  0.82698075  0.45894355     0.02500
C1072       C  0.13790012  0.85392604  0.49144205     0.00200
C1073       C  0.15933366  0.84954747  0.52818324    -0.11500
C1074       C  0.18885462  0.81887843  0.53320195     0.02400
H1075       H  0.18537466  0.77710837  0.43823922     0.15400
H1076       H  0.15175411  0.86921837  0.55371687     0.15400
C1077       C  0.20563890  0.81258824  0.57336447     0.37000
C1078       C  0.12497945  0.82943188  0.42085369     0.36900
N1079       N  0.21867820  0.80763272  0.60579130    -0.43300
N1080       N  0.10727049  0.83119520  0.39034805    -0.43300
C1081       C  0.86141296  0.85717743  0.48548233     0.00300
C1082       C  0.83831787  0.84406804  0.51936226    -0.11600
C1083       C  0.80787088  0.81356836  0.51522381     0.02500
C1084       C  0.80022323  0.79571366  0.47687638     0.00200
C1085       C  0.82299069  0.80920515  0.44311784    -0.11500
C1086       C  0.85300940  0.83975168  0.44703909     0.02400
H1087       H  0.84420785  0.85744708  0.54901810     0.15400
H1088       H  0.81693991  0.79589341  0.41346756     0.15400
C1089       C  0.87357883  0.85430270  0.41084507     0.37000
C1090       C  0.78493901  0.80067395  0.55050788     0.36900
N1091       N  0.88958357  0.86686014  0.38194842    -0.43300
N1092       N  0.76642406  0.79024520  0.57875233    -0.43300
C1093       C  0.86759951  0.13339073  0.48354364     0.00300
C1094       C  0.83565848  0.13715816  0.51207082    -0.11600
C1095       C  0.80524606  0.16750382  0.50794164     0.02500
C1096       C  0.80622222  0.19478239  0.47446095     0.00200
C1097       C  0.83919379  0.19203920  0.44706133    -0.11500
C1098       C  0.86966300  0.16214679  0.45138126     0.02400
H1099       H  0.83491760  0.11685188  0.53810774     0.15400
H1100       H  0.84041543  0.21270190  0.42122034     0.15400
C1101       C  0.90188931  0.16096449  0.42130658     0.37000
C1102       C  0.77409927  0.17047363  0.53891567     0.36900
N1103       N  0.92752942  0.16062974  0.39698009    -0.43300
N1104       N  0.74941647  0.17269671  0.56412927    -0.43300
C1105       C  0.20033652  0.19139823  0.48788665     0.00300
C1106       C  0.17130004  0.19257730  0.51975463    -0.11600
C1107       C  0.13990159  0.16296840  0.52273340     0.02500
C1108       C  0.13914120  0.12933948  0.49561727     0.00200
C1109       C  0.16806895  0.12802049  0.46418967    -0.11500
C1110       C  0.19684916  0.15945249  0.45892809     0.02400
H1111       H  0.17241721  0.21726413  0.54172063     0.15400
H1112       H  0.16618740  0.10375639  0.44170196     0.15400
C1113       C  0.21805355  0.16075999  0.42050490     0.37000
C1114       C  0.10820761  0.16830274  0.55299028     0.36900
N1115       N  0.23326270  0.16127718  0.38867382    -0.43300
N1116       N  0.08227992  0.17269295  0.57663769    -0.43300
C1117       C  0.97607745  0.68245949  0.19745811     0.00300
C1118       C  0.96060253  0.64289488  0.20069740    -0.11600
C1119       C  0.96758454  0.61408161  0.17004788     0.02500
C1120       C  0.98976133  0.62501581  0.13423356     0.00200
C1121       C  0.00692458  0.66432558  0.13196528    -0.11500
C1122       C  0.00086905  0.69267231  0.16351357     0.02400
H1123       H  0.94149042  0.63471145  0.22630564     0.15400
H1124       H  0.02509188  0.67292192  0.10563945     0.15400
C1125       C  0.01995523  0.73247666  0.16049745     0.37000
C1126       C  0.95010234  0.57400123  0.17627699     0.36900
N1127       N  0.03492507  0.76454054  0.15890786    -0.43300
N1128       N  0.93638650  0.54193845  0.18233444    -0.43300
C1129       C  0.97901127  0.78859997  0.30326286     0.00300
C1130       C  0.00345414  0.82217717  0.29154058    -0.11600
C1131       C  0.01118440  0.85456372  0.31839463     0.02500
C1132       C  0.99564117  0.85280888  0.35842515     0.00200
C1133       C  0.97365301  0.81776005  0.37078460    -0.11500
C1134       C  0.96410734  0.78656190  0.34332581     0.02400
H1135       H  0.01446074  0.82424090  0.26038814     0.15400
H1136       H  0.96107820  0.81604417  0.40134904     0.15400
C1137       C  0.93485410  0.75592253  0.35569051     0.37000
C1138       C  0.03410847  0.88944224  0.30379663     0.36900
N1139       N  0.91064661  0.73216410  0.36584871    -0.43300
N1140       N  0.05214124  0.91762022  0.29213864    -0.43300
C1141       C  0.97985020  0.30325469  0.79038028     0.00300
C1142       C  0.94657030  0.31250594  0.81571693    -0.11600
C1143       C  0.95139813  0.33771301  0.84963984     0.02500
C1144       C  0.98936657  0.35650663  0.85721710     0.00200
C1145       C  0.02215681  0.34944059  0.83044901    -0.11500
C1146       C  0.01808194  0.32176805  0.79800182     0.02400
H1147       H  0.91748763  0.29718077  0.81087141     0.15400
H1148       H  0.05148648  0.36389017  0.83621931     0.15400
C1149       C  0.05432806  0.30917406  0.77624982     0.37000
C1150       C  0.91724677  0.34264138  0.87690916     0.36900
N1151       N  0.08347329  0.29838721  0.75936744    -0.43300
N1152       N  0.88984897  0.34564722  0.89895074    -0.43300
C1153       C  0.99010981  0.19278547  0.68476654     0.00300
C1154       C  0.01796756  0.16047630  0.69042744    -0.11600
C1155       C  0.02120639  0.12872843  0.66231006     0.02500
C1156       C  0.99726574  0.12957429  0.62670688     0.00200
C1157       C  0.97098832  0.16303588  0.61975867    -0.11500
C1158       C  0.96660842  0.19415579  0.64885367     0.02400
H1159       H  0.03599329  0.15907164  0.71817862     0.15400
H1160       H  0.95240948  0.16388126  0.59236875     0.15400
C1161       C  0.93602075  0.22527740  0.64240187     0.37000
C1162       C  0.04883988  0.09546010  0.67119937     0.36900
N1163       N  0.91143599  0.25015043  0.63704151    -0.43300
N1164       N  0.07062384  0.06862641  0.67871895    -0.43300
C1165       C  0.02362724  0.67676789  0.78846072     0.00300
C1166       C  0.05775284  0.66398198  0.81114798    -0.11600
C1167       C  0.05355505  0.63615319  0.84333909     0.02500
C1168       C  0.01450426  0.62107198  0.85367107     0.00200
C1169       C  0.98069908  0.63188883  0.82960840    -0.11500
C1170       C  0.98486681  0.65991545  0.79742936     0.02400
H1171       H  0.08749614  0.67739185  0.80496173     0.15400
H1172       H  0.95076667  0.61948137  0.83688416     0.15400
C1173       C  0.94847291  0.67363021  0.77659217     0.37000
C1174       C  0.08966763  0.62377155  0.86549955     0.36900
N1175       N  0.91921377  0.68478394  0.76014216    -0.43300
N1176       N  0.11874500  0.61376380  0.88297411    -0.43300
C1177       C  0.00777336  0.78720106  0.68358295     0.00300
C1178       C  0.03088694  0.78363668  0.64782889    -0.11600
C1179       C  0.02858947  0.81379568  0.61736205     0.02500
C1180       C  0.00386448  0.84901009  0.62331186     0.00200
C1181       C  0.97934200  0.85130258  0.65820416    -0.11500
C1182       C  0.98036843  0.82039685  0.68764027     0.02400
H1183       H  0.05219388  0.75844000  0.64457210     0.15400
H1184       H  0.95905534  0.87720573  0.66236804     0.15400
C1185       C  0.95310112  0.82348580  0.72217100     0.37000
C1186       C  0.05312216  0.80842334  0.58114741     0.36900
N1187       N  0.93113229  0.82566525  0.74975529    -0.43300
N1188       N  0.07237907  0.80354489  0.55195254    -0.43300
C1189       C  0.18952921  0.69670249  0.50113198     0.00300
C1190       C  0.19369754  0.66734855  0.47002847    -0.11600
C1191       C  0.16715023  0.63386204  0.46740237     0.02500
C1192       C  0.13490441  0.63010817  0.49554899     0.00200
C1193       C  0.12902458  0.66094643  0.52484059    -0.11500
C1194       C  0.15640218  0.69366388  0.52836954     0.02400
H1195       H  0.21953727  0.66921457  0.44931222     0.15400
H1196       H  0.10387216  0.65843455  0.54632565     0.15400
C1197       C  0.15152655  0.72119075  0.56232635     0.37000
C1198       C  0.17391570  0.60381083  0.43590660     0.36900
N1199       N  0.14664876  0.74229831  0.59018729    -0.43300
N1200       N  0.17971125  0.57979678  0.41067030    -0.43300
C1201       C  0.86352828  0.35730701  0.48029703     0.00300
C1202       C  0.84968574  0.33162990  0.51156349    -0.11600
C1203       C  0.82348615  0.29884833  0.50291873     0.02500
C1204       C  0.81275139  0.29033794  0.46206592     0.00200
C1205       C  0.82855124  0.31502635  0.43075300    -0.11500
C1206       C  0.85355350  0.34843070  0.43955188     0.02400
H1207       H  0.85864808  0.33773209  0.54279257     0.15400
H1208       H  0.82019328  0.30892243  0.39933050     0.15400
C1209       C  0.86936777  0.37271288  0.40622585     0.37000
C1210       C  0.80529063  0.27729778  0.53675552     0.36900
N1211       N  0.88217049  0.39208102  0.37955873    -0.43300
N1212       N  0.79064276  0.26107951  0.56452460    -0.43300
C1213       C  0.18801670  0.28755963  0.49792583     0.00300
C1214       C  0.15386397  0.28366110  0.47254341    -0.11600
C1215       C  0.12370003  0.31403899  0.47198193     0.02500
C1216       C  0.12793217  0.34918400  0.49687230     0.00200
C1217       C  0.16046450  0.35138181  0.52441680    -0.11500
C1218       C  0.19012582  0.32077496  0.52550785     0.02400
H1219       H  0.15233532  0.25862217  0.45091666     0.15400
H1220       H  0.16307926  0.37745227  0.54470315     0.15400
C1221       C  0.22386781  0.32551347  0.55358182     0.37000
C1222       C  0.09043609  0.30963352  0.44348464     0.36900
N1223       N  0.25098569  0.32972115  0.57587545    -0.43300
N1224       N  0.06381558  0.30555950  0.42064481    -0.43300
C1225       C  0.87153570  0.63829125  0.49375732     0.00300
C1226       C  0.83410388  0.63625471  0.51440708    -0.11600
C1227       C  0.80517204  0.66738274  0.50989837     0.02500
C1228       C  0.81253048  0.70000833  0.48253464     0.00200
C1229       C  0.85111402  0.70404280  0.46471733    -0.11500
C1230       C  0.88108551  0.67416102  0.47104383     0.02400
H1231       H  0.82731994  0.61021638  0.53379015     0.15400
H1232       H  0.85716346  0.72924001  0.44408294     0.15400
C1233       C  0.92067714  0.68075849  0.45254783     0.37000
C1234       C  0.76751238  0.66491760  0.53285537     0.36900
N1235       N  0.95258346  0.68674689  0.43841772    -0.43300
N1236       N  0.73735484  0.66346453  0.55130593    -0.43300
C1237       C  0.12933206  0.47963544  0.35482768     0.00300
C1238       C  0.14704115  0.44100494  0.35030965    -0.11600
C1239       C  0.17502008  0.43367436  0.31903987     0.02500
C1240       C  0.18580880  0.46558519  0.29196790     0.00200
C1241       C  0.16600519  0.50342078  0.29487119    -0.11500
C1242       C  0.13769171  0.51058866  0.32604112     0.02400
H1243       H  0.13919447  0.41665493  0.37143172     0.15400
H1244       H  0.17451788  0.52809184  0.27441710     0.15400
C1245       C  0.11958192  0.55063320  0.32946201     0.37000
C1246       C  0.19316713  0.39350989  0.31600829     0.36900
N1247       N  0.10528838  0.58284424  0.33225887    -0.43300
N1248       N  0.20780983  0.36138843  0.31368660    -0.43300
C1249       C  0.80858165  0.51493352  0.28900056     0.00300
C1250       C  0.79839313  0.48943912  0.32209585    -0.11600
C1251       C  0.82502993  0.48399709  0.35510457     0.02500
C1252       C  0.86395446  0.50271455  0.35463116     0.00200
C1253       C  0.87505324  0.52642229  0.32036183    -0.11500
C1254       C  0.84748732  0.53344110  0.28825649     0.02400
H1255       H  0.76814318  0.47574769  0.32337313     0.15400
H1256       H  0.90467369  0.54142231  0.31966134     0.15400
C1257       C  0.85839024  0.56281377  0.25728639     0.37000
C1258       C  0.81088757  0.45994175  0.38924374     0.36900
N1259       N  0.86713640  0.58680164  0.23283797    -0.43300
N1260       N  0.79882312  0.44083184  0.41643536    -0.43300
C1261       C  0.13206219  0.49756886  0.63391282     0.00300
C1262       C  0.15353658  0.53449510  0.63592842    -0.11600
C1263       C  0.18003604  0.54247508  0.66825839     0.02500
C1264       C  0.18670650  0.51247474  0.69868169     0.00200
C1265       C  0.16376703  0.47624210  0.69782554    -0.11500
C1266       C  0.13589358  0.46893263  0.66605253     0.02400
H1267       H  0.14893976  0.55754785  0.61255096     0.15400
H1268       H  0.16893701  0.45298142  0.72083387     0.15400
C1269       C  0.11256008  0.43140762  0.66645155     0.37000
C1270       C  0.20005093  0.58192756  0.66984420     0.36900
N1271       N  0.09379972  0.40136522  0.66716403    -0.43300
N1272       N  0.21596278  0.61352150  0.67157846    -0.43300
C1273       C  0.86615625  0.49515966  0.63395467     0.00300
C1274       C  0.86804925  0.52566832  0.66408381    -0.11600
C1275       C  0.83930608  0.52664775  0.69577688     0.02500
C1276       C  0.80950430  0.49560574  0.69836846     0.00200
C1277       C  0.80952508  0.46377688  0.66965866    -0.11500
C1278       C  0.83701610  0.46370288  0.63722136     0.02400
H1279       H  0.89079048  0.54976676  0.66171587     0.15400
H1280       H  0.78614018  0.44021911  0.67118900     0.15400
C1281       C  0.83441775  0.43128813  0.60748957     0.37000
C1282       C  0.83873191  0.56145879  0.72281053     0.36900
N1283       N  0.83212212  0.40544927  0.58353924    -0.43300
N1284       N  0.83816124  0.58953970  0.74425442    -0.43300
C1285       C  0.99121183  0.63142101  0.35762880     0.00300
C1286       C  0.95391217  0.63408548  0.33647917    -0.11600
C1287       C  0.94741166  0.66427359  0.30656259     0.02500
C1288       C  0.97929956  0.69119682  0.29502314     0.00200
C1289       C  0.01634057  0.68937213  0.31678845    -0.11500
C1290       C  0.02214772  0.66038001  0.34836806     0.02400
H1291       H  0.92913584  0.61349642  0.34451425     0.15400
H1292       H  0.04042147  0.71100765  0.30952769     0.15400
C1293       C  0.05988141  0.66113433  0.37115757     0.37000
C1294       C  0.90666873  0.66961799  0.29039511     0.36900
N1295       N  0.08999382  0.66190839  0.38970695    -0.43300
N1296       N  0.87410663  0.67476178  0.27752340    -0.43300
C1297       C  0.99116313  0.35470665  0.63363873     0.00300
C1298       C  0.01611684  0.31971924  0.63118113    -0.11600
C1299       C  0.01611733  0.28972851  0.66222951     0.02500
C1300       C  0.98763160  0.29178558  0.69473946     0.00200
C1301       C  0.96275603  0.32689963  0.69710982    -0.11500
C1302       C  0.96565733  0.35879459  0.66832827     0.02400
H1303       H  0.03756159  0.31701474  0.60609076     0.15400
H1304       H  0.94119003  0.32983049  0.72201246     0.15400
C1305       C  0.94299791  0.39586519  0.67604679     0.37000
C1306       C  0.04862705  0.26002824  0.66223364     0.36900
N1307       N  0.92575234  0.42592886  0.68309057    -0.43300
N1308       N  0.07535665  0.23685118  0.66245627    -0.43300
C1309       C  0.00543491  0.62915266  0.63240505     0.00300
C1310       C  0.04186522  0.63339681  0.65461311    -0.11600
C1311       C  0.04602077  0.66366932  0.68470307     0.02500
C1312       C  0.01329471  0.69043206  0.69354733     0.00200
C1313       C  0.97671403  0.68628408  0.67132009    -0.11500
C1314       C  0.97242633  0.65562074  0.64130013     0.02400
H1315       H  0.06744445  0.61335707  0.64796948     0.15400
H1316       H  0.95131152  0.70646110  0.67802849     0.15400
C1317       C  0.93334501  0.65032987  0.62144661     0.37000
C1318       C  0.08488795  0.66795646  0.70504863     0.36900
N1319       N  0.90195765  0.64548108  0.60582067    -0.43300
N1320       N  0.11607871  0.67166278  0.72132610    -0.43300
C1321       C  0.03830775  0.30882847  0.20156524     0.00300
C1322       C  0.06837068  0.32707108  0.17702926    -0.11600
C1323       C  0.05779102  0.35350660  0.14531180     0.02500
C1324       C  0.01624754  0.36069224  0.13621238     0.00200
C1325       C  0.98598771  0.34389778  0.16163459    -0.11500
C1326       C  0.99673875  0.31810210  0.19428548     0.02400
H1327       H  0.10035401  0.31984629  0.18213631     0.15400
H1328       H  0.95403748  0.35054567  0.15568831     0.15400
C1329       C  0.96465002  0.29956347  0.21826264     0.37000
C1330       C  0.09027195  0.37438498  0.12387453     0.36900
N1331       N  0.93905834  0.28464658  0.23764278    -0.43300
N1332       N  0.11664450  0.39170026  0.10779665    -0.43300
C1333       C  0.03540359  0.19830895  0.30552275     0.00300
C1334       C  0.00877400  0.16637866  0.29446325    -0.11600
C1335       C  0.00127800  0.13336360  0.32056461     0.02500
C1336       C  0.01841694  0.13310476  0.36003702     0.00200
C1337       C  0.04411213  0.16587813  0.37162102    -0.11500
C1338       C  0.05375294  0.19754779  0.34426134     0.02400
H1339       H  0.99580629  0.16594624  0.26400719     0.15400
H1340       H  0.05867578  0.16551511  0.40133102     0.15400
C1341       C  0.08554929  0.22629802  0.35483991     0.37000
C1342       C  0.97777098  0.09943591  0.30493765     0.36900
N1343       N  0.11166160  0.24886097  0.36278103    -0.43300
N1344       N  0.95986913  0.07203686  0.29150135    -0.43300
C1345       C  0.03051247  0.29636303  0.29751890     0.00300
C1346       C  0.99928015  0.28876749  0.32615488    -0.11600
C1347       C  0.98993681  0.31729737  0.35712571     0.02500
C1348       C  0.01034227  0.35556195  0.35856760     0.00200
C1349       C  0.04153005  0.36297077  0.33003499    -0.11500
C1350       C  0.05268637  0.33350089  0.30097969     0.02400
H1351       H  0.98245534  0.26024770  0.32472298     0.15400
H1352       H  0.05900557  0.39115658  0.33195551     0.15400
C1353       C  0.08959921  0.34073951  0.27792223     0.37000
C1354       C  0.96014650  0.30596244  0.38758380     0.36900
N1355       N  0.11963004  0.34674975  0.26017887    -0.43300
N1356       N  0.93682789  0.29620122  0.41231540    -0.43300
loop_ 
_geom_bond_atom_site_label_1 
_geom_bond_atom_site_label_2 
_geom_bond_distance 
_geom_bond_site_symmetry_2 
_ccdc_geom_bond_type 
N1            C5   1.366       .  A
N1            C2   1.367       .  A
N1         C1345   1.460       .  S
C2            C3   1.382       .  A
C2         C1333   1.482       .  S
C3            C4   1.364       .  A
C3            H6   1.083       .  S
C4            C5   1.379       .  A
C4            H7   1.083       .  S
C5         C1321   1.482       .  S
O8           C19   1.295       .  A
O8          Eu44   2.485   1_455  S
O9           C20   1.294       .  A
O9          Eu43   2.482       .  S
O10          C21   1.284       .  A
O10         Eu16   2.419   1_455  S
O11          C22   1.282       .  A
O11         Eu16   2.411       .  S
O12          C22   1.296       .  A
O12         Eu46   2.484       .  S
O13          C21   1.298       .  A
O13         Eu45   2.489       .  S
O14          C20   1.296       .  A
O14         Eu16   2.496       .  S
O15          C19   1.294       .  A
O15         Eu16   2.483   1_455  S
Eu16         O26   2.367       .  S
Eu16         O18   2.347   1_655  S
Eu16         O17   2.352       .  S
Eu16         O24   2.354   1_655  S
O17         Eu46   2.370       .  S
O17         Eu43   2.356       .  S
O18         Eu44   2.351   1_455  S
O18         Eu45   2.350       .  S
C19        C1348   1.501       .  S
C20        C1297   1.507       .  S
C21        C1216   1.475       .  S
C22        C1201   1.459       .  S
H23          O24   0.966       .  S
O24         Eu45   2.368       .  S
O24         Eu43   2.350   1_455  S
H25          O26   0.964       .  S
O26         Eu44   2.350       .  S
O26         Eu46   2.366       .  S
O27          C50   1.293       .  A
O27         Eu43   2.476   1_455  S
O28          C51   1.294       .  A
O28         Eu44   2.487       .  S
O29          C52   1.298       .  A
O29         Eu45   2.491       .  S
O30          C53   1.296       .  A
O30         Eu46   2.479       .  S
O31          C54   1.298       .  A
O31         Eu46   2.498       .  S
O32          C55   1.296       .  A
O32         Eu45   2.484       .  S
O33          C56   1.282       .  A
O33         Eu47   2.407       .  S
O34          C57   1.281       .  A
O34         Eu47   2.401   1_655  S
O35          C56   1.298       .  A
O35         Eu45   2.497       .  S
O36          C57   1.300       .  A
O36         Eu46   2.504       .  S
O37          C52   1.284       .  A
O37         Eu43   2.425   1_455  S
O38          C55   1.284       .  A
O38         Eu44   2.416   1_455  S
O39          C54   1.287       .  A
O39         Eu44   2.437       .  S
O40          C53   1.284       .  A
O40         Eu43   2.417       .  S
O41          C50   1.294       .  A
O41         Eu47   2.485       .  S
O42          C51   1.295       .  A
O42         Eu47   2.494   1_655  S
Eu43         O61   2.353       .  S
Eu43         O49   2.353   1_655  S
Eu44         O48   2.344       .  S
Eu44         O59   2.359   1_655  S
Eu45         O59   2.370       .  S
Eu45         O49   2.353       .  S
Eu46         O48   2.353       .  S
Eu46         O61   2.361       .  S
Eu47         O48   2.348   1_455  S
Eu47         O59   2.354       .  S
Eu47         O61   2.351   1_455  S
Eu47         O49   2.348       .  S
C50        C1309   1.491       .  S
C51        C1285   1.502       .  S
C52        C1261   1.471       .  S
C53        C1273   1.466       .  S
C54        C1252   1.490       .  S
C55        C1237   1.463       .  S
C56        C1192   1.473       .  S
C57        C1225   1.481       .  S
H58          O59   0.966       .  S
H60          O61   0.966       .  S
N62          C66   1.363       .  A
N62          C63   1.364       .  A
N62        C1312   1.452       .  S
C63          C64   1.379       .  A
C63        C1165   1.479       .  S
C64          C65   1.365       .  A
C64          H67   1.082       .  S
C65          C66   1.383       .  A
C65          H68   1.083       .  S
C66        C1177   1.481       .  S
N69          C73   1.367       .  A
N69          C70   1.371       .  A
N69        C1300   1.465       .  S
C70          C71   1.382       .  A
C70        C1153   1.479       .  S
C71          C72   1.355       .  A
C71          H74   1.083       .  S
C72          C73   1.378       .  A
C72          H75   1.083       .  S
C73        C1141   1.473       .  S
N76          C80   1.362       .  A
N76          C77   1.364       .  A
N76        C1288   1.456       .  S
C77          C78   1.382       .  A
C77        C1117   1.481       .  S
C78          C79   1.363       .  A
C78          H81   1.083       .  S
C79          C80   1.381       .  A
C79          H82   1.083       .  S
C80        C1129   1.476       .  S
O83          C94   1.297       .  A
O83        Eu119   2.487   1_545  S
O84          C95   1.297   1_455  A
O84        Eu118   2.483   1_545  S
O85          C96   1.290       .  A
O85         Eu91   2.463   1_655  S
O86          C97   1.289       .  A
O86         Eu91   2.457       .  S
O87          C97   1.295       .  A
O87        Eu121   2.487   1_545  S
O88          C96   1.297       .  A
O88        Eu120   2.501   1_545  S
O89          C95   1.285       .  A
O89         Eu91   2.424   1_655  S
O90          C94   1.288       .  A
O90         Eu91   2.443       .  S
Eu91        O101   2.349       .  S
Eu91         O93   2.349   1_455  S
Eu91         O92   2.358       .  S
Eu91         O99   2.355   1_455  S
O92        Eu121   2.349   1_545  S
O92        Eu118   2.363   1_545  S
O93        Eu119   2.362   1_645  S
O93        Eu120   2.354   1_545  S
C94        C1336   1.488       .  S
C95        C1156   1.476       .  S
C96        C1093   1.497       .  S
C97        C1108   1.491       .  S
H98          O99   0.965       .  S
O99        Eu120   2.342   1_545  S
O99        Eu118   2.368   1_645  S
H100        O101   0.965       .  S
O101       Eu119   2.360   1_545  S
O101       Eu121   2.342   1_545  S
O102        C125   1.299       .  A
O102       Eu118   2.495       .  S
O103        C126   1.298   1_455  A
O103       Eu119   2.494       .  S
O104        C127   1.283       .  A
O104       Eu120   2.414       .  S
O105        C128   1.283       .  A
O105       Eu121   2.418       .  S
O106        C129   1.283       .  A
O106       Eu121   2.412       .  S
O107        C130   1.282       .  A
O107       Eu120   2.407       .  S
O108        C131   1.295       .  A
O108       Eu122   2.488   1_655  S
O109        C132   1.294       .  A
O109       Eu122   2.486       .  S
O110        C131   1.293       .  A
O110       Eu120   2.481       .  S
O111        C132   1.292       .  A
O111       Eu121   2.472       .  S
O112        C127   1.299       .  A
O112       Eu118   2.496   1_655  S
O113        C130   1.298       .  A
O113       Eu119   2.489   1_655  S
O114        C129   1.297       .  A
O114       Eu119   2.484       .  S
O115        C128   1.298       .  A
O115       Eu118   2.498       .  S
O116        C125   1.286       .  A
O116       Eu122   2.429       .  S
O117        C126   1.284   1_455  A
O117       Eu122   2.410       .  S
Eu118       O136   2.357       .  S
Eu118       O124   2.357   1_455  S
Eu119       O123   2.358       .  S
Eu119       O134   2.362   1_455  S
Eu120       O134   2.357       .  S
Eu120       O124   2.356       .  S
Eu121       O123   2.353       .  S
Eu121       O136   2.350       .  S
Eu122       O123   2.351       .  S
Eu122       O134   2.355   1_455  S
Eu122       O136   2.350       .  S
Eu122       O124   2.352   1_455  S
C125       C1180   1.484       .  S
C126       C1132   1.483       .  S
C127       C1024   1.486       .  S
C128       C1033   1.469       .  S
C129       C1045   1.471       .  S
C130       C1057   1.472   1_565  S
C131       C1081   1.493       .  S
C132       C1072   1.490       .  S
H133        O134   0.966       .  S
H135        O136   0.965       .  S
N137        C141   1.368       .  A
N137        C138   1.366       .  A
N137       C1105   1.461       .  S
C138        C139   1.381       .  A
C138       C1213   1.475       .  S
C139        C140   1.357       .  A
C139        H142   1.082       .  S
C140        C141   1.379       .  A
C140        H143   1.083       .  S
C141       C1009   1.475       .  S
N144        C148   1.363       .  A
N144        C145   1.362       .  A
N144       C1096   1.455       .  S
C145        C146   1.379       .  A
C145       C1204   1.475       .  S
C146        C147   1.361       .  A
C146        H149   1.083       .  S
C147        C148   1.382       .  A
C147        H150   1.083       .  S
C148       C1000   1.473       .  S
N151        C155   1.359       .  A
N151        C152   1.361       .  A
N151       C1084   1.450       .  S
C152        C153   1.381       .  A
C152        C985   1.475       .  S
C153        C154   1.364       .  A
C153        H156   1.082       .  S
C154        C155   1.381       .  A
C154        H157   1.083       .  S
C155       C1228   1.476       .  S
N158        C162   1.363       .  A
N158        C159   1.361       .  A
N158       C1069   1.451       .  S
C159        C160   1.381       .  A
C159       C1189   1.474       .  S
C160        C161   1.363       .  A
C160        H163   1.083       .  S
C161        C162   1.380       .  A
C161        H164   1.083       .  S
C162        C973   1.477       .  S
N165        C169   1.361       .  A
N165        C166   1.366       .  A
N165        C961   1.460       .  S
C166        C167   1.384       .  A
C166       C1060   1.474       .  S
C167        C168   1.358   1_545  A
C167        H170   1.083       .  S
C168        C169   1.376   1_565  A
C168        H171   1.083       .  S
C169        C952   1.463       .  S
O172        C183   1.295       .  A
O172       Eu208   2.485       .  S
O173        C184   1.297       .  A
O173       Eu207   2.489       .  S
O174        C185   1.295       .  A
O174       Eu180   2.488       .  S
O175        C186   1.294       .  A
O175       Eu180   2.481       .  S
O176        C186   1.293       .  A
O176       Eu210   2.476       .  S
O177        C185   1.295       .  A
O177       Eu209   2.484       .  S
O178        C184   1.285       .  A
O178       Eu180   2.424       .  S
O179        C183   1.285       .  A
O179       Eu180   2.431   1_545  S
Eu180       O190   2.359   1_565  S
Eu180       O182   2.351   1_565  S
Eu180       O181   2.355       .  S
Eu180       O188   2.355       .  S
O181       Eu210   2.348       .  S
O181       Eu207   2.356       .  S
O182       Eu208   2.361       .  S
O182       Eu209   2.355   1_545  S
C183       C1012   1.470       .  S
C184        C976   1.474       .  S
C185        C913   1.502       .  S
C186        C937   1.500       .  S
H187        O188   0.965       .  S
O188       Eu209   2.347       .  S
O188       Eu207   2.357       .  S
H189        O190   0.966       .  S
O190       Eu208   2.366       .  S
O190       Eu210   2.369   1_545  S
O191        C214   1.296       .  A
O191       Eu207   2.484       .  S
O192        C215   1.296       .  A
O192       Eu208   2.480       .  S
O193        C216   1.285       .  A
O193       Eu209   2.427       .  S
O194        C217   1.284       .  A
O194       Eu210   2.425       .  S
O195        C218   1.283       .  A
O195       Eu210   2.415   1_545  S
O196        C219   1.285       .  A
O196       Eu209   2.419   1_545  S
O197        C220   1.296       .  A
O197       Eu211   2.496       .  S
O198        C221   1.297       .  A
O198       Eu211   2.499       .  S
O199        C220   1.295       .  A
O199       Eu209   2.485       .  S
O200        C221   1.296       .  A
O200       Eu210   2.497       .  S
O201        C216   1.293       .  A
O201       Eu207   2.472       .  S
O202        C219   1.299       .  A
O202       Eu208   2.500       .  S
O203        C218   1.298       .  A
O203       Eu208   2.497       .  S
O204        C217   1.295       .  A
O204       Eu207   2.482       .  S
O205        C214   1.287       .  A
O205       Eu211   2.433       .  S
O206        C215   1.286       .  A
O206       Eu211   2.426   1_545  S
Eu207       O225   2.367       .  S
Eu207       O213   2.362       .  S
Eu208       O212   2.364       .  S
Eu208       O223   2.352       .  S
Eu209       O223   2.346   1_565  S
Eu209       O213   2.352       .  S
Eu210       O212   2.354   1_565  S
Eu210       O225   2.360       .  S
Eu211       O212   2.354   1_565  S
Eu211       O223   2.351   1_565  S
Eu211       O225   2.362       .  S
Eu211       O213   2.357       .  S
C214        C988   1.480       .  S
C215        C997   1.484       .  S
C216        C880   1.462       .  S
C217        C901   1.465       .  S
C218        C889   1.468       .  S
C219        C868   1.483       .  S
C220        C964   1.503   1_565  S
C221        C925   1.503       .  S
H222        O223   0.965       .  S
H224        O225   0.966       .  S
N226        C230   1.369       .  A
N226        C227   1.365       .  A
N226        C940   1.463       .  S
C227        C228   1.381       .  A
C227        C853   1.470       .  S
C228        C229   1.359       .  A
C228        H231   1.083       .  S
C229        C230   1.377       .  A
C229        H232   1.083       .  S
C230       C1036   1.474       .  S
N233        C237   1.364       .  A
N233        C234   1.365       .  A
N233        C928   1.457       .  S
C234        C235   1.383       .  A
C234       C1021   1.479   1_545  S
C235        C236   1.360       .  A
C235        H238   1.083       .  S
C236        C237   1.378       .  A
C236        H239   1.083       .  S
C237        C841   1.473       .  S
N240        C244   1.367       .  A
N240        C241   1.371       .  A
N240        C916   1.466       .  S
C241        C242   1.381       .  A
C241        C832   1.479       .  S
C242        C243   1.356       .  A
C242        H245   1.083       .  S
C243        C244   1.378       .  A
C243        H246   1.083       .  S
C244       C1048   1.473       .  S
O247        C258   1.293       .  A
O247       Eu283   2.468   1_554  S
O248        C259   1.294       .  A
O248       Eu282   2.478   1_554  S
O249        C260   1.291       .  A
O249       Eu255   2.469   1_545  S
O250        C261   1.292       .  A
O250       Eu255   2.467       .  S
O251        C261   1.298       .  A
O251       Eu285   2.504   1_554  S
O252        C260   1.295       .  A
O252       Eu284   2.486   1_554  S
O253        C259   1.285       .  A
O253       Eu255   2.431       .  S
O254        C258   1.283       .  A
O254       Eu255   2.419       .  S
Eu255       O265   2.358       .  S
Eu255       O257   2.341   1_565  S
Eu255       O256   2.347       .  S
Eu255       O263   2.351   1_565  S
O256       Eu285   2.348   1_554  S
O256       Eu282   2.352   1_554  S
O257       Eu283   2.353   1_544  S
O257       Eu284   2.340   1_554  S
C258        C949   1.457       .  S
C259        C829   1.468       .  S
C260        C817   1.501       .  S
C261        C805   1.503       .  S
H262        O263   0.966       .  S
O263       Eu284   2.357   1_554  S
O263       Eu282   2.365   1_544  S
H264        O265   0.965       .  S
O265       Eu283   2.363   1_554  S
O265       Eu285   2.357   1_554  S
O266        C289   1.294       .  A
O266       Eu282   2.466       .  S
O267        C290   1.296       .  A
O267       Eu283   2.486       .  S
O268        C291   1.282       .  A
O268       Eu284   2.404       .  S
O269        C292   1.286       .  A
O269       Eu285   2.433       .  S
O270        C293   1.282       .  A
O270       Eu285   2.408       .  S
O271        C294   1.281   1_556  A
O271       Eu284   2.403       .  S
O272        C295   1.295       .  A
O272       Eu286   2.488   1_545  S
O273        C296   1.294       .  A
O273       Eu286   2.482       .  S
O274        C295   1.293       .  A
O274       Eu284   2.481       .  S
O275        C296   1.297       .  A
O275       Eu285   2.496       .  S
O276        C291   1.298       .  A
O276       Eu282   2.494   1_545  S
O277        C294   1.297       .  A
O277       Eu283   2.490   1_544  S
O278        C293   1.298       .  A
O278       Eu283   2.496       .  S
O279        C292   1.299       .  A
O279       Eu282   2.497       .  S
O280        C289   1.286       .  A
O280       Eu286   2.432       .  S
O281        C290   1.285       .  A
O281       Eu286   2.431       .  S
Eu282       O300   2.361       .  S
Eu282       O288   2.365   1_565  S
Eu283       O287   2.361       .  S
Eu283       O298   2.358   1_565  S
Eu284       O298   2.351       .  S
Eu284       O288   2.352       .  S
Eu285       O287   2.362       .  S
Eu285       O300   2.348       .  S
Eu286       O287   2.357       .  S
Eu286       O298   2.349   1_565  S
Eu286       O300   2.361       .  S
Eu286       O288   2.357   1_565  S
C289        C856   1.464       .  S
C290        C844   1.468   1_565  S
C291        C769   1.470       .  S
C292        C745   1.492       .  S
C293        C757   1.469   1_556  S
C294        C733   1.461       .  S
C295        C781   1.496       .  S
C296        C793   1.504       .  S
H297        O298   0.966       .  S
H299        O300   0.966       .  S
N301        C305   1.370       .  A
N301        C302   1.370       .  A
N301        C820   1.461       .  S
C302        C303   1.379       .  A
C302        C865   1.482       .  S
C303        C304   1.357       .  A
C303        H306   1.083       .  S
C304        C305   1.382       .  A
C304        H307   1.082       .  S
C305        C724   1.488       .  S
N308        C312   1.365       .  A
N308        C309   1.366       .  A
N308        C808   1.463       .  S
C309        C310   1.382       .  A
C309        C712   1.471       .  S
C310        C311   1.357       .  A
C310        H313   1.083       .  S
C311        C312   1.376       .  A
C311        H314   1.083       .  S
C312        C877   1.466       .  S
N315        C319   1.365       .  A
N315        C316   1.368       .  A
N315        C796   1.461       .  S
C316        C317   1.382       .  A
C316        C697   1.476       .  S
C317        C318   1.359       .  A
C317        H320   1.083       .  S
C318        C319   1.377       .  A
C318        H321   1.083       .  S
C319        C904   1.469       .  S
N322        C326   1.367       .  A
N322        C323   1.364       .  A
N322        C784   1.457       .  S
C323        C324   1.378       .  A
C323        C892   1.477       .  S
C324        C325   1.360       .  A
C324        H327   1.083       .  S
C325        C326   1.383       .  A
C325        H328   1.082       .  S
C326        C685   1.483       .  S
O329        C340   1.298       .  A
O329       Eu365   2.499   1_454  S
O330        C341   1.300       .  A
O330       Eu364   2.506   1_654  S
O331        C342   1.290       .  A
O331       Eu337   2.461   1_455  S
O332        C343   1.290       .  A
O332       Eu337   2.465       .  S
O333        C343   1.295       .  A
O333       Eu367   2.489   1_554  S
O334        C342   1.298       .  A
O334       Eu366   2.503   1_554  S
O335        C341   1.283       .  A
O335       Eu337   2.419       .  S
O336        C340   1.284       .  A
O336       Eu337   2.428   1_455  S
Eu337       O347   2.349       .  S
Eu337       O339   2.344   1_655  S
Eu337       O338   2.351       .  S
Eu337       O345   2.354   1_655  S
O338       Eu367   2.351   1_554  S
O338       Eu364   2.362   1_654  S
O339       Eu365   2.356   1_454  S
O339       Eu366   2.338   1_554  S
C340       C1324   1.475       .  S
C341       C1120   1.492       .  S
C342        C661   1.502       .  S
C343        C673   1.490       .  S
H344        O345   0.965       .  S
O345       Eu366   2.357   1_554  S
O345       Eu364   2.369   1_554  S
H346        O347   0.966       .  S
O347       Eu365   2.361   1_554  S
O347       Eu367   2.360   1_554  S
O348        C371   1.298       .  A
O348       Eu364   2.498       .  S
O349        C372   1.297       .  A
O349       Eu365   2.492       .  S
O350        C373   1.282       .  A
O350       Eu366   2.412       .  S
O351        C374   1.281       .  A
O351       Eu367   2.397       .  S
O352        C375   1.283       .  A
O352       Eu367   2.415       .  S
O353        C376   1.286       .  A
O353       Eu366   2.434       .  S
O354        C377   1.294       .  A
O354       Eu368   2.476       .  S
O355        C378   1.296       .  A
O355       Eu368   2.493   1_655  S
O356        C377   1.292       .  A
O356       Eu366   2.471       .  S
O357        C378   1.295       .  A
O357       Eu367   2.488       .  S
O358        C373   1.300       .  A
O358       Eu364   2.497       .  S
O359        C376   1.292       .  A
O359       Eu365   2.466   1_455  S
O360        C375   1.296   1_554  A
O360       Eu365   2.480   1_554  S
O361        C374   1.300       .  A
O361       Eu364   2.501   1_655  S
O362        C371   1.285       .  A
O362       Eu368   2.429       .  S
O363        C372   1.285       .  A
O363       Eu368   2.425   1_655  S
Eu364       O382   2.366   1_455  S
Eu364       O370   2.353       .  S
Eu365       O369   2.359       .  S
Eu365       O380   2.365   1_655  S
Eu366       O380   2.362       .  S
Eu366       O370   2.352       .  S
Eu367       O369   2.346       .  S
Eu367       O382   2.358       .  S
Eu368       O369   2.352   1_455  S
Eu368       O380   2.355       .  S
Eu368       O382   2.350   1_455  S
Eu368       O370   2.348       .  S
C371       C1168   1.473       .  S
C372       C1144   1.471       .  S
C373        C616   1.487       .  S
C374        C589   1.471       .  S
C375        C601   1.462   1_556  S
C376        C625   1.462       .  S
C377        C649   1.498       .  S
C378        C637   1.505       .  S
H379        O380   0.966       .  S
H381        O382   0.966       .  S
N383        C387   1.362       .  A
N383        C384   1.365       .  A
N383        C676   1.450       .  S
C384        C385   1.382       .  A
C384       C1249   1.485       .  S
C385        C386   1.365       .  A
C385        H388   1.082       .  S
C386        C387   1.380       .  A
C386        H389   1.082       .  S
C387        C580   1.479       .  S
N390        C394   1.369       .  A
N390        C391   1.371       .  A
N390        C664   1.467       .  S
C391        C392   1.381       .  A
C391        C565   1.475       .  S
C392        C393   1.354       .  A
C392        H395   1.083       .  S
C393        C394   1.378       .  A
C393        H396   1.083       .  S
C394       C1240   1.474       .  S
N397        C401   1.372       .  A
N397        C398   1.370       .  A
N397        C652   1.469       .  S
C398        C399   1.377       .  A
C398        C553   1.472       .  S
C399        C400   1.352       .  A
C399        H402   1.083       .  S
C400        C401   1.382       .  A
C400        H403   1.083       .  S
C401       C1264   1.479       .  S
N404        C408   1.367       .  A
N404        C405   1.365       .  A
N404        C640   1.461       .  S
C405        C406   1.379       .  A
C405       C1276   1.470       .  S
C406        C407   1.356       .  A
C406        H409   1.083       .  S
C407        C408   1.381       .  A
C407        H410   1.083       .  S
C408        C541   1.474       .  S
N411        C415   1.364   1_554  A
N411        C412   1.364       .  A
N411        C529   1.459   1_554  S
C412        C413   1.380       .  A
C412        C628   1.468       .  S
C413        C414   1.355       .  A
C413        H416   1.083       .  S
C414        C415   1.380   1_554  A
C414        H417   1.083       .  S
C415        C772   1.470       .  S
O418        C429   1.297       .  A
O418       Eu454   2.483       .  S
O419        C430   1.300       .  A
O419       Eu453   2.500       .  S
O420        C431   1.295       .  A
O420       Eu426   2.491       .  S
O421        C432   1.294       .  A
O421       Eu426   2.485       .  S
O422        C432   1.293       .  A
O422       Eu456   2.478       .  S
O423        C431   1.293       .  A
O423       Eu455   2.479       .  S
O424        C430   1.282       .  A
O424       Eu426   2.411       .  S
O425        C429   1.285       .  A
O425       Eu426   2.425   1_554  S
Eu426       O436   2.359   1_556  S
Eu426       O428   2.348   1_556  S
Eu426       O427   2.359       .  S
Eu426       O434   2.354       .  S
O427       Eu456   2.355       .  S
O427       Eu453   2.362       .  S
O428       Eu454   2.359       .  S
O428       Eu455   2.353   1_554  S
C429        C721   1.470       .  S
C430        C688   1.481       .  S
C431        C532   1.496       .  S
C432        C493   1.489   1_556  S
H433        O434   0.966       .  S
O434       Eu455   2.353       .  S
O434       Eu453   2.356       .  S
H435        O436   0.966       .  S
O436       Eu454   2.354       .  S
O436       Eu456   2.351   1_554  S
O437        C460   1.298       .  A
O437       Eu453   2.491       .  S
O438        C461   1.296       .  A
O438       Eu454   2.478       .  S
O439        C462   1.282       .  A
O439       Eu455   2.408       .  S
O440        C463   1.284       .  A
O440       Eu456   2.419       .  S
O441        C464   1.283       .  A
O441       Eu456   2.421   1_554  S
O442        C465   1.283       .  A
O442       Eu455   2.409   1_554  S
O443        C466   1.290       .  A
O443       Eu457   2.469       .  S
O444        C467   1.292       .  A
O444       Eu457   2.470       .  S
O445        C466   1.295       .  A
O445       Eu455   2.491       .  S
O446        C467   1.294       .  A
O446       Eu456   2.485       .  S
O447        C462   1.299       .  A
O447       Eu453   2.493       .  S
O448        C465   1.297       .  A
O448       Eu454   2.485       .  S
O449        C464   1.298       .  A
O449       Eu454   2.500       .  S
O450        C463   1.297       .  A
O450       Eu453   2.484       .  S
O451        C460   1.283       .  A
O451       Eu457   2.414       .  S
O452        C461   1.283       .  A
O452       Eu457   2.415   1_554  S
Eu453       O471   2.361       .  S
Eu453       O459   2.358       .  S
Eu454       O458   2.354       .  S
Eu454       O469   2.359       .  S
Eu455       O469   2.346   1_556  S
Eu455       O459   2.348       .  S
Eu456       O458   2.351   1_556  S
Eu456       O471   2.352       .  S
Eu457       O458   2.347   1_556  S
Eu457       O469   2.351   1_556  S
Eu457       O471   2.350       .  S
Eu457       O459   2.351       .  S
C460        C700   1.471       .  S
C461        C709   1.471       .  S
C462        C556   1.472       .  S
C463        C544   1.468       .  S
C464        C577   1.472       .  S
C465        C568   1.473       .  S
C466        C505   1.491   1_556  S
C467        C520   1.495       .  S
H468        O469   0.966       .  S
H470        O471   0.965       .  S
N472        C476   1.368       .  A
N472        C473   1.366   1_556  A
N472        C517   1.461       .  S
C473        C474   1.379       .  A
C473        C760   1.473       .  S
C474        C475   1.355       .  A
C474        H477   1.083       .  S
C475        C476   1.381   1_554  A
C475        H478   1.083   1_554  S
C476        C592   1.476       .  S
N479        C483   1.362       .  A
N479        C480   1.362       .  A
N479        C508   1.449       .  S
C480        C481   1.381       .  A
C480        C748   1.480       .  S
C481        C482   1.364       .  A
C481        H484   1.082       .  S
C482        C483   1.381       .  A
C482        H485   1.083       .  S
C483        C613   1.482       .  S
N486        C490   1.359       .  A
N486        C487   1.360       .  A
N486        C496   1.449       .  S
C487        C488   1.383       .  A
C487        C604   1.473       .  S
C488        C489   1.360       .  A
C488        H491   1.082       .  S
C489        C490   1.380       .  A
C489        H492   1.083       .  S
C490        C736   1.468       .  S
C493        C494   1.404       .  A
C493        C498   1.412   1_554  A
C494        C495   1.406       .  A
C494        H499   1.083       .  S
C495        C496   1.409       .  A
C495        C502   1.441       .  S
C496        C497   1.406   1_554  A
C497        C498   1.410       .  A
C497        H500   1.083       .  S
C498        C501   1.443       .  S
C501        N503   1.157       .  T
C502        N504   1.157       .  T
C505        C506   1.409   1_554  A
C505        C510   1.410       .  A
C506        C507   1.413       .  A
C506        H511   1.084       .  S
C507        C508   1.409   1_556  A
C507        C514   1.441       .  S
C508        C509   1.404       .  A
C509        C510   1.403       .  A
C509        H512   1.084       .  S
C510        C513   1.443       .  S
C513        N515   1.157       .  T
C514        N516   1.157       .  T
C517        C518   1.409   1_556  A
C517        C522   1.419       .  A
C518        C519   1.407       .  A
C518        H523   1.083       .  S
C519        C520   1.414   1_554  A
C519        C526   1.444       .  S
C520        C521   1.404       .  A
C521        C522   1.409       .  A
C521        H524   1.085       .  S
C522        C525   1.441       .  S
C525        N527   1.157       .  T
C526        N528   1.157       .  T
C529        C530   1.409       .  A
C529        C534   1.417   1_556  A
C530        C531   1.413       .  A
C530        H535   1.084       .  S
C531        C532   1.415       .  A
C531        C538   1.443       .  S
C532        C533   1.403   1_556  A
C533        C534   1.407       .  A
C533        H536   1.085       .  S
C534        C537   1.440       .  S
C537        N539   1.156       .  T
C538        N540   1.157       .  T
C541        C542   1.406       .  A
C541        C546   1.409       .  A
C542        C543   1.393       .  A
C542        H547   1.086       .  S
C543        C544   1.406       .  A
C543        C550   1.443       .  S
C544        C545   1.405       .  A
C545        C546   1.401       .  A
C545        H548   1.084       .  S
C546        C549   1.443       .  S
C549        N551   1.157       .  T
C550        N552   1.157       .  T
C553        C554   1.396       .  A
C553        C558   1.413       .  A
C554        C555   1.398       .  A
C554        H559   1.085       .  S
C555        C556   1.419       .  A
C555        C562   1.442       .  S
C556        C557   1.398       .  A
C557        C558   1.395       .  A
C557        H560   1.085       .  S
C558        C561   1.445       .  S
C561        N563   1.157       .  T
C562        N564   1.156       .  T
C565        C566   1.408       .  A
C565        C570   1.406       .  A
C566        C567   1.394       .  A
C566        H571   1.085       .  S
C567        C568   1.406       .  A
C567        C574   1.445       .  S
C568        C569   1.411       .  A
C569        C570   1.401       .  A
C569        H572   1.084       .  S
C570        C573   1.443       .  S
C573        N575   1.157       .  T
C574        N576   1.158       .  T
C577        C578   1.399       .  A
C577        C582   1.410       .  A
C578        C579   1.398       .  A
C578        H583   1.085       .  S
C579        C580   1.413       .  A
C579        C586   1.444       .  S
C580        C581   1.403       .  A
C581        C582   1.403       .  A
C581        H584   1.085       .  S
C582        C585   1.440       .  S
C585        N587   1.156       .  T
C586        N588   1.157       .  T
C589        C590   1.408   1_556  A
C589        C594   1.404       .  A
C590        C591   1.398       .  A
C590        H595   1.084       .  S
C591        C592   1.408   1_554  A
C591        C598   1.444       .  S
C592        C593   1.409       .  A
C593        C594   1.395       .  A
C593        H596   1.085       .  S
C594        C597   1.444       .  S
C597        N599   1.157       .  T
C598        N600   1.158       .  T
C601        C602   1.397       .  A
C601        C606   1.412   1_554  A
C602        C603   1.392       .  A
C602        H607   1.086       .  S
C603        C604   1.413       .  A
C603        C610   1.445       .  S
C604        C605   1.402   1_554  A
C605        C606   1.400       .  A
C605        H608   1.080       .  S
C606        C609   1.444       .  S
C609        N611   1.158       .  T
C610        N612   1.157       .  T
C613        C614   1.398       .  A
C613        C618   1.415   1_554  A
C614        C615   1.403       .  A
C614        H619   1.082       .  S
C615        C616   1.425   1_554  A
C615        C622   1.445       .  S
C616        C617   1.400       .  A
C617        C618   1.396       .  A
C617        H620   1.085       .  S
C618        C621   1.445       .  S
C621        N623   1.157       .  T
C622        N624   1.157       .  T
C625        C626   1.393   1_556  A
C625        C630   1.408       .  A
C626        C627   1.390       .  A
C626        H631   1.080       .  S
C627        C628   1.413       .  A
C627        C634   1.446       .  S
C628        C629   1.403   1_554  A
C629        C630   1.402       .  A
C629        H632   1.085       .  S
C630        C633   1.443       .  S
C633        N635   1.157       .  T
C634        N636   1.157       .  T
C637        C638   1.408       .  A
C637        C642   1.416       .  A
C638        C639   1.410       .  A
C638        H643   1.085       .  S
C639        C640   1.415       .  A
C639        C646   1.441       .  S
C640        C641   1.408       .  A
C641        C642   1.411       .  A
C641        H644   1.083       .  S
C642        C645   1.441       .  S
C645        N647   1.156       .  T
C646        N648   1.157       .  T
C649        C650   1.402       .  A
C649        C654   1.413       .  A
C650        C651   1.404       .  A
C650        H655   1.086       .  S
C651        C652   1.422       .  A
C651        C658   1.438       .  S
C652        C653   1.416       .  A
C653        C654   1.410       .  A
C653        H656   1.080       .  S
C654        C657   1.444       .  S
C657        N659   1.158       .  T
C658        N660   1.157       .  T
C661        C662   1.404       .  A
C661        C666   1.414       .  A
C662        C663   1.411       .  A
C662        H667   1.082       .  S
C663        C664   1.421       .  A
C663        C670   1.440       .  S
C664        C665   1.412       .  A
C665        C666   1.404       .  A
C665        H668   1.081       .  S
C666        C669   1.444       .  S
C669        N671   1.158       .  T
C670        N672   1.157       .  T
C673        C674   1.409       .  A
C673        C678   1.411       .  A
C674        C675   1.413       .  A
C674        H679   1.084       .  S
C675        C676   1.411       .  A
C675        C682   1.441       .  S
C676        C677   1.404       .  A
C677        C678   1.403       .  A
C677        H680   1.084       .  S
C678        C681   1.444       .  S
C681        N683   1.157       .  T
C682        N684   1.157       .  T
C685        C686   1.400       .  A
C685        C690   1.419       .  A
C686        C687   1.403       .  A
C686        H691   1.084       .  S
C687        C688   1.422       .  A
C687        C694   1.444       .  S
C688        C689   1.397       .  A
C689        C690   1.394       .  A
C689        H692   1.085       .  S
C690        C693   1.445       .  S
C693        N695   1.157       .  T
C694        N696   1.157       .  T
C697        C698   1.406       .  A
C697        C702   1.408       .  A
C698        C699   1.393       .  A
C698        H703   1.085       .  S
C699        C700   1.404       .  A
C699        C706   1.444       .  S
C700        C701   1.408       .  A
C701        C702   1.403       .  A
C701        H704   1.085       .  S
C702        C705   1.443       .  S
C705        N707   1.157       .  T
C706        N708   1.157       .  T
C709        C710   1.410       .  A
C709        C714   1.406       .  A
C710        C711   1.403       .  A
C710        H715   1.085       .  S
C711        C712   1.406       .  A
C711        C718   1.443       .  S
C712        C713   1.404       .  A
C713        C714   1.390       .  A
C713        H716   1.086       .  S
C714        C717   1.443       .  S
C717        N719   1.156       .  T
C718        N720   1.157       .  T
C721        C722   1.395       .  A
C721        C726   1.413       .  A
C722        C723   1.391       .  A
C722        H727   1.086       .  S
C723        C724   1.417       .  A
C723        C730   1.445       .  S
C724        C725   1.407       .  A
C725        C726   1.408       .  A
C725        H728   1.084       .  S
C726        C729   1.444       .  S
C729        N731   1.157       .  T
C730        N732   1.157       .  T
C733        C734   1.398       .  A
C733        C738   1.411   1_554  A
C734        C735   1.394       .  A
C734        H739   1.085       .  S
C735        C736   1.412       .  A
C735        C742   1.445       .  S
C736        C737   1.401   1_554  A
C737        C738   1.400       .  A
C737        H740   1.084       .  S
C738        C741   1.444       .  S
C741        N743   1.157       .  T
C742        N744   1.157       .  T
C745        C746   1.403       .  A
C745        C750   1.423   1_556  A
C746        C747   1.402       .  A
C746        H751   1.085       .  S
C747        C748   1.417   1_556  A
C747        C754   1.446       .  S
C748        C749   1.395       .  A
C749        C750   1.402       .  A
C749        H752   1.085       .  S
C750        C753   1.443       .  S
C753        N755   1.157       .  T
C754        N756   1.157       .  T
C757        C758   1.397       .  A
C757        C762   1.414   1_554  A
C758        C759   1.396       .  A
C758        H763   1.083       .  S
C759        C760   1.414       .  A
C759        C766   1.446       .  S
C760        C761   1.400   1_554  A
C761        C762   1.401       .  A
C761        H764   1.085       .  S
C762        C765   1.444       .  S
C765        N767   1.157       .  T
C766        N768   1.157       .  T
C769        C770   1.408   1_556  A
C769        C774   1.405       .  A
C770        C771   1.401       .  A
C770        H775   1.085       .  S
C771        C772   1.407   1_554  A
C771        C778   1.443       .  S
C772        C773   1.406       .  A
C773        C774   1.394       .  A
C773        H776   1.085       .  S
C774        C777   1.444       .  S
C777        N779   1.157       .  T
C778        N780   1.157       .  T
C781        C782   1.404       .  A
C781        C786   1.415       .  A
C782        C783   1.408       .  A
C782        H787   1.085       .  S
C783        C784   1.417       .  A
C783        C790   1.442       .  S
C784        C785   1.406       .  A
C785        C786   1.411       .  A
C785        H788   1.084       .  S
C786        C789   1.442       .  S
C789        N791   1.157       .  T
C790        N792   1.157       .  T
C793        C794   1.407       .  A
C793        C798   1.416       .  A
C794        C795   1.411       .  A
C794        H799   1.085       .  S
C795        C796   1.416       .  A
C795        C802   1.441       .  S
C796        C797   1.408       .  A
C797        C798   1.408       .  A
C797        H800   1.081       .  S
C798        C801   1.442       .  S
C801        N803   1.157       .  T
C802        N804   1.157       .  T
C805        C806   1.409       .  A
C805        C810   1.415       .  A
C806        C807   1.415       .  A
C806        H811   1.085       .  S
C807        C808   1.419       .  A
C807        C814   1.441       .  S
C808        C809   1.405       .  A
C809        C810   1.403       .  A
C809        H812   1.079       .  S
C810        C813   1.443       .  S
C813        N815   1.157       .  T
C814        N816   1.157       .  T
C817        C818   1.405       .  A
C817        C822   1.417       .  A
C818        C819   1.406       .  A
C818        H823   1.085       .  S
C819        C820   1.419       .  A
C819        C826   1.442       .  S
C820        C821   1.408       .  A
C821        C822   1.409       .  A
C821        H824   1.082       .  S
C822        C825   1.442       .  S
C825        N827   1.157       .  T
C826        N828   1.157       .  T
C829        C830   1.397       .  A
C829        C834   1.409   1_565  A
C830        C831   1.396       .  A
C830        H835   1.086       .  S
C831        C832   1.418       .  A
C831        C838   1.446       .  S
C832        C833   1.403   1_565  A
C833        C834   1.404       .  A
C833        H836   1.085       .  S
C834        C837   1.442       .  S
C837        N839   1.157       .  T
C838        N840   1.157       .  T
C841        C842   1.405   1_545  A
C841        C846   1.412       .  A
C842        C843   1.403       .  A
C842        H847   1.085       .  S
C843        C844   1.406   1_565  A
C843        C850   1.444       .  S
C844        C845   1.400       .  A
C845        C846   1.399       .  A
C845        H848   1.085       .  S
C846        C849   1.444       .  S
C849        N851   1.157       .  T
C850        N852   1.157       .  T
C853        C854   1.401   1_565  A
C853        C858   1.413       .  A
C854        C855   1.401       .  A
C854        H859   1.084       .  S
C855        C856   1.412   1_545  A
C855        C862   1.444       .  S
C856        C857   1.398       .  A
C857        C858   1.392       .  A
C857        H860   1.085       .  S
C858        C861   1.446       .  S
C861        N863   1.157       .  T
C862        N864   1.157       .  T
C865        C866   1.408       .  A
C865        C870   1.406       .  A
C866        C867   1.397       .  A
C866        H871   1.085       .  S
C867        C868   1.407       .  A
C867        C874   1.443       .  S
C868        C869   1.413       .  A
C869        C870   1.403       .  A
C869        H872   1.085       .  S
C870        C873   1.443       .  S
C873        N875   1.157       .  T
C874        N876   1.157       .  T
C877        C878   1.403       .  A
C877        C882   1.410       .  A
C878        C879   1.399       .  A
C878        H883   1.085       .  S
C879        C880   1.407       .  A
C879        C886   1.444       .  S
C880        C881   1.400       .  A
C881        C882   1.396       .  A
C881        H884   1.085       .  S
C882        C885   1.444       .  S
C885        N887   1.157       .  T
C886        N888   1.157       .  T
C889        C890   1.404       .  A
C889        C894   1.406       .  A
C890        C891   1.404       .  A
C890        H895   1.085       .  S
C891        C892   1.412       .  A
C891        C898   1.443       .  S
C892        C893   1.404       .  A
C893        C894   1.395       .  A
C893        H896   1.085       .  S
C894        C897   1.443       .  S
C897        N899   1.157       .  T
C898        N900   1.157       .  T
C901        C902   1.398       .  A
C901        C906   1.410       .  A
C902        C903   1.396       .  A
C902        H907   1.084       .  S
C903        C904   1.410       .  A
C903        C910   1.444       .  S
C904        C905   1.403       .  A
C905        C906   1.402       .  A
C905        H908   1.085       .  S
C906        C909   1.443       .  S
C909        N911   1.157       .  T
C910        N912   1.157       .  T
C913        C914   1.404       .  A
C913        C918   1.414   1_565  A
C914        C915   1.407       .  A
C914        H919   1.085       .  S
C915        C916   1.419       .  A
C915        C922   1.438       .  S
C916        C917   1.413   1_565  A
C917        C918   1.414       .  A
C917        H920   1.082       .  S
C918        C921   1.443       .  S
C921        N923   1.157       .  T
C922        N924   1.156       .  T
C925        C926   1.404   1_565  A
C925        C930   1.417       .  A
C926        C927   1.408       .  A
C926        H931   1.081       .  S
C927        C928   1.412       .  A
C927        C934   1.441       .  S
C928        C929   1.408   1_545  A
C929        C930   1.419       .  A
C929        H932   1.084       .  S
C930        C933   1.442       .  S
C933        N935   1.157       .  T
C934        N936   1.157       .  T
C937        C938   1.407       .  A
C937        C942   1.413   1_565  A
C938        C939   1.411       .  A
C938        H943   1.085       .  S
C939        C940   1.423       .  A
C939        C946   1.442       .  S
C940        C941   1.405   1_565  A
C941        C942   1.402       .  A
C941        H944   1.075       .  S
C942        C945   1.441       .  S
C945        N947   1.157       .  T
C946        N948   1.157       .  T
C949        C950   1.401   1_565  A
C949        C954   1.405       .  A
C950        C951   1.398       .  A
C950        H955   1.085       .  S
C951        C952   1.409       .  A
C951        C958   1.445       .  S
C952        C953   1.402   1_545  A
C953        C954   1.394       .  A
C953        H956   1.085       .  S
C954        C957   1.445       .  S
C957        N959   1.157       .  T
C958        N960   1.157       .  T
C961        C962   1.405   1_545  A
C961        C966   1.416       .  A
C962        C963   1.404       .  A
C962        H967   1.081       .  S
C963        C964   1.413   1_565  A
C963        C970   1.441       .  S
C964        C965   1.411       .  A
C965        C966   1.416       .  A
C965        H968   1.084       .  S
C966        C969   1.442       .  S
C969        N971   1.157       .  T
C970        N972   1.156       .  T
C973        C974   1.396       .  A
C973        C978   1.416       .  A
C974        C975   1.395       .  A
C974        H979   1.076       .  S
C975        C976   1.413       .  A
C975        C982   1.441       .  S
C976        C977   1.400       .  A
C977        C978   1.400       .  A
C977        H980   1.085       .  S
C978        C981   1.445       .  S
C981        N983   1.157       .  T
C982        N984   1.156       .  T
C985        C986   1.407       .  A
C985        C990   1.405       .  A
C986        C987   1.400       .  A
C986        H991   1.085       .  S
C987        C988   1.409       .  A
C987        C994   1.444       .  S
C988        C989   1.409       .  A
C989        C990   1.401       .  A
C989        H992   1.085       .  S
C990        C993   1.443       .  S
C993        N995   1.157       .  T
C994        N996   1.157       .  T
C997        C998   1.413       .  A
C997       C1002   1.411       .  A
C998        C999   1.401       .  A
C998       H1003   1.084       .  S
C999       C1000   1.404       .  A
C999       C1006   1.443       .  S
C1000      C1001   1.405       .  A
C1001      C1002   1.394       .  A
C1001      H1004   1.086       .  S
C1002      C1005   1.444       .  S
C1005      N1007   1.157       .  T
C1006      N1008   1.157       .  T
C1009      C1010   1.402       .  A
C1009      C1014   1.416       .  A
C1010      C1011   1.401       .  A
C1010      H1015   1.085       .  S
C1011      C1012   1.408       .  A
C1011      C1018   1.442       .  S
C1012      C1013   1.399       .  A
C1013      C1014   1.399       .  A
C1013      H1016   1.085       .  S
C1014      C1017   1.446       .  S
C1017      N1019   1.158       .  T
C1018      N1020   1.157       .  T
C1021      C1022   1.396   1_565  A
C1021      C1026   1.416       .  A
C1022      C1023   1.402       .  A
C1022      H1027   1.084       .  S
C1023      C1024   1.424   1_545  A
C1023      C1030   1.443       .  S
C1024      C1025   1.400       .  A
C1025      C1026   1.397       .  A
C1025      H1028   1.085       .  S
C1026      C1029   1.445       .  S
C1029      N1031   1.157       .  T
C1030      N1032   1.157       .  T
C1033      C1034   1.402       .  A
C1033      C1038   1.407   1_565  A
C1034      C1035   1.402       .  A
C1034      H1039   1.085       .  S
C1035      C1036   1.411       .  A
C1035      C1042   1.444       .  S
C1036      C1037   1.404   1_565  A
C1037      C1038   1.397       .  A
C1037      H1040   1.085       .  S
C1038      C1041   1.443       .  S
C1041      N1043   1.157       .  T
C1042      N1044   1.157       .  T
C1045      C1046   1.408       .  A
C1045      C1050   1.407   1_565  A
C1046      C1047   1.399       .  A
C1046      H1051   1.085       .  S
C1047      C1048   1.406       .  A
C1047      C1054   1.443       .  S
C1048      C1049   1.407   1_565  A
C1049      C1050   1.396       .  A
C1049      H1052   1.085       .  S
C1050      C1053   1.445       .  S
C1053      N1055   1.157       .  T
C1054      N1056   1.157       .  T
C1057      C1058   1.396       .  A
C1057      C1062   1.419   1_545  A
C1058      C1059   1.393       .  A
C1058      H1063   1.083       .  S
C1059      C1060   1.414       .  A
C1059      C1066   1.445       .  S
C1060      C1061   1.398   1_545  A
C1061      C1062   1.400       .  A
C1061      H1064   1.084       .  S
C1062      C1065   1.443       .  S
C1065      N1067   1.157       .  T
C1066      N1068   1.157       .  T
C1069      C1070   1.407       .  A
C1069      C1074   1.413       .  A
C1070      C1071   1.414       .  A
C1070      H1075   1.084       .  S
C1071      C1072   1.415       .  A
C1071      C1078   1.443       .  S
C1072      C1073   1.401       .  A
C1073      C1074   1.402       .  A
C1073      H1076   1.085       .  S
C1074      C1077   1.442       .  S
C1077      N1079   1.157       .  T
C1078      N1080   1.158       .  T
C1081      C1082   1.409       .  A
C1081      C1086   1.411       .  A
C1082      C1083   1.414       .  A
C1082      H1087   1.084       .  S
C1083      C1084   1.409       .  A
C1083      C1090   1.441       .  S
C1084      C1085   1.404       .  A
C1085      C1086   1.405       .  A
C1085      H1088   1.084       .  S
C1086      C1089   1.444       .  S
C1089      N1091   1.157       .  T
C1090      N1092   1.157       .  T
C1093      C1094   1.407       .  A
C1093      C1098   1.414       .  A
C1094      C1095   1.412       .  A
C1094      H1099   1.082       .  S
C1095      C1096   1.415       .  A
C1095      C1102   1.441       .  S
C1096      C1097   1.406       .  A
C1097      C1098   1.403       .  A
C1097      H1100   1.084       .  S
C1098      C1101   1.443       .  S
C1101      N1103   1.157       .  T
C1102      N1104   1.157       .  T
C1105      C1106   1.412       .  A
C1105      C1110   1.417       .  A
C1106      C1107   1.413       .  A
C1106      H1111   1.083       .  S
C1107      C1108   1.415       .  A
C1107      C1114   1.445       .  S
C1108      C1109   1.399       .  A
C1109      C1110   1.403       .  A
C1109      H1112   1.086       .  S
C1110      C1113   1.439       .  S
C1113      N1115   1.156       .  T
C1114      N1116   1.158       .  T
C1117      C1118   1.392       .  A
C1117      C1122   1.416   1_655  A
C1118      C1119   1.397       .  A
C1118      H1123   1.080       .  S
C1119      C1120   1.425       .  A
C1119      C1126   1.443       .  S
C1120      C1121   1.404   1_655  A
C1121      C1122   1.404       .  A
C1121      H1124   1.084       .  S
C1122      C1125   1.446       .  S
C1125      N1127   1.157       .  T
C1126      N1128   1.157       .  T
C1129      C1130   1.410   1_655  A
C1129      C1134   1.403       .  A
C1130      C1131   1.401       .  A
C1130      H1135   1.085       .  S
C1131      C1132   1.409   1_455  A
C1131      C1138   1.445       .  S
C1132      C1133   1.411       .  A
C1133      C1134   1.396       .  A
C1133      H1136   1.085       .  S
C1134      C1137   1.442       .  S
C1137      N1139   1.157       .  T
C1138      N1140   1.158       .  T
C1141      C1142   1.402       .  A
C1141      C1146   1.410   1_655  A
C1142      C1143   1.394       .  A
C1142      H1147   1.086       .  S
C1143      C1144   1.406       .  A
C1143      C1150   1.439       .  S
C1144      C1145   1.405   1_655  A
C1145      C1146   1.404       .  A
C1145      H1148   1.085       .  S
C1146      C1149   1.443       .  S
C1149      N1151   1.157       .  T
C1150      N1152   1.155       .  T
C1153      C1154   1.408   1_655  A
C1153      C1158   1.407       .  A
C1154      C1155   1.393       .  A
C1154      H1159   1.085       .  S
C1155      C1156   1.406   1_455  A
C1155      C1162   1.444       .  S
C1156      C1157   1.410       .  A
C1157      C1158   1.403       .  A
C1157      H1160   1.085       .  S
C1158      C1161   1.443       .  S
C1161      N1163   1.157       .  T
C1162      N1164   1.157       .  T
C1165      C1166   1.405       .  A
C1165      C1170   1.411   1_455  A
C1166      C1167   1.400       .  A
C1166      H1171   1.085       .  S
C1167      C1168   1.409       .  A
C1167      C1174   1.444       .  S
C1168      C1169   1.403   1_455  A
C1169      C1170   1.404       .  A
C1169      H1172   1.085       .  S
C1170      C1173   1.444       .  S
C1173      N1175   1.157       .  T
C1174      N1176   1.157       .  T
C1177      C1178   1.400       .  A
C1177      C1182   1.415   1_455  A
C1178      C1179   1.405       .  A
C1178      H1183   1.085       .  S
C1179      C1180   1.421       .  A
C1179      C1186   1.444       .  S
C1180      C1181   1.399   1_455  A
C1181      C1182   1.398       .  A
C1181      H1184   1.085       .  S
C1182      C1185   1.445       .  S
C1185      N1187   1.157       .  T
C1186      N1188   1.157       .  T
C1189      C1190   1.408       .  A
C1189      C1194   1.407       .  A
C1190      C1191   1.399       .  A
C1190      H1195   1.085       .  S
C1191      C1192   1.406       .  A
C1191      C1198   1.444       .  S
C1192      C1193   1.407       .  A
C1193      C1194   1.398       .  A
C1193      H1196   1.085       .  S
C1194      C1197   1.442       .  S
C1197      N1199   1.157       .  T
C1198      N1200   1.157       .  T
C1201      C1202   1.399       .  A
C1201      C1206   1.406       .  A
C1202      C1203   1.400       .  A
C1202      H1207   1.084       .  S
C1203      C1204   1.413       .  A
C1203      C1210   1.442       .  S
C1204      C1205   1.404       .  A
C1205      C1206   1.394       .  A
C1205      H1208   1.085       .  S
C1206      C1209   1.445       .  S
C1209      N1211   1.157       .  T
C1210      N1212   1.157       .  T
C1213      C1214   1.398       .  A
C1213      C1218   1.416       .  A
C1214      C1215   1.400       .  A
C1214      H1219   1.085       .  S
C1215      C1216   1.417       .  A
C1215      C1222   1.441       .  S
C1216      C1217   1.397       .  A
C1217      C1218   1.395       .  A
C1217      H1220   1.085       .  S
C1218      C1221   1.445       .  S
C1221      N1223   1.157       .  T
C1222      N1224   1.156       .  T
C1225      C1226   1.399       .  A
C1225      C1230   1.423       .  A
C1226      C1227   1.398       .  A
C1226      H1231   1.085       .  S
C1227      C1228   1.414       .  A
C1227      C1234   1.445       .  S
C1228      C1229   1.396       .  A
C1229      C1230   1.400       .  A
C1229      H1232   1.084       .  S
C1230      C1233   1.445       .  S
C1233      N1235   1.157       .  T
C1234      N1236   1.157       .  T
C1237      C1238   1.398       .  A
C1237      C1242   1.410       .  A
C1238      C1239   1.395       .  A
C1238      H1243   1.085       .  S
C1239      C1240   1.414       .  A
C1239      C1246   1.445       .  S
C1240      C1241   1.400       .  A
C1241      C1242   1.399       .  A
C1241      H1244   1.085       .  S
C1242      C1245   1.442       .  S
C1245      N1247   1.157       .  T
C1246      N1248   1.157       .  T
C1249      C1250   1.408       .  A
C1249      C1254   1.407       .  A
C1250      C1251   1.401       .  A
C1250      H1255   1.085       .  S
C1251      C1252   1.411       .  A
C1251      C1258   1.443       .  S
C1252      C1253   1.412       .  A
C1253      C1254   1.405       .  A
C1253      H1256   1.085       .  S
C1254      C1257   1.442       .  S
C1257      N1259   1.157       .  T
C1258      N1260   1.157       .  T
C1261      C1262   1.397       .  A
C1261      C1266   1.415       .  A
C1262      C1263   1.394       .  A
C1262      H1267   1.085       .  S
C1263      C1264   1.416       .  A
C1263      C1270   1.447       .  S
C1264      C1265   1.401       .  A
C1265      C1266   1.405       .  A
C1265      H1268   1.084       .  S
C1266      C1269   1.444       .  S
C1269      N1271   1.157       .  T
C1270      N1272   1.157       .  T
C1273      C1274   1.406       .  A
C1273      C1278   1.405       .  A
C1274      C1275   1.401       .  A
C1274      H1279   1.085       .  S
C1275      C1276   1.408       .  A
C1275      C1282   1.444       .  S
C1276      C1277   1.404       .  A
C1277      C1278   1.392       .  A
C1277      H1280   1.085       .  S
C1278      C1281   1.443       .  S
C1281      N1283   1.157       .  T
C1282      N1284   1.157       .  T
C1285      C1286   1.405       .  A
C1285      C1290   1.417   1_655  A
C1286      C1287   1.408       .  A
C1286      H1291   1.085       .  S
C1287      C1288   1.414       .  A
C1287      C1294   1.444       .  S
C1288      C1289   1.407   1_655  A
C1289      C1290   1.417       .  A
C1289      H1292   1.084       .  S
C1290      C1293   1.442       .  S
C1293      N1295   1.157       .  T
C1294      N1296   1.157       .  T
C1297      C1298   1.408   1_655  A
C1297      C1302   1.417       .  A
C1298      C1299   1.413       .  A
C1298      H1303   1.085       .  S
C1299      C1300   1.417   1_455  A
C1299      C1306   1.440       .  S
C1300      C1301   1.410       .  A
C1301      C1302   1.409       .  A
C1301      H1304   1.083       .  S
C1302      C1305   1.444       .  S
C1305      N1307   1.157       .  T
C1306      N1308   1.157       .  T
C1309      C1310   1.403       .  A
C1309      C1314   1.414   1_455  A
C1310      C1311   1.405       .  A
C1310      H1315   1.085       .  S
C1311      C1312   1.413       .  A
C1311      C1318   1.442       .  S
C1312      C1313   1.407   1_455  A
C1313      C1314   1.413       .  A
C1313      H1316   1.084       .  S
C1314      C1317   1.444       .  S
C1317      N1319   1.157       .  T
C1318      N1320   1.157       .  T
C1321      C1322   1.402       .  A
C1321      C1326   1.413   1_455  A
C1322      C1323   1.396       .  A
C1322      H1327   1.085       .  S
C1323      C1324   1.410       .  A
C1323      C1330   1.443       .  S
C1324      C1325   1.404   1_455  A
C1325      C1326   1.408       .  A
C1325      H1328   1.084       .  S
C1326      C1329   1.443       .  S
C1329      N1331   1.157       .  T
C1330      N1332   1.157       .  T
C1333      C1334   1.406       .  A
C1333      C1338   1.405       .  A
C1334      C1335   1.399       .  A
C1334      H1339   1.085   1_455  S
C1335      C1336   1.411       .  A
C1335      C1342   1.443   1_455  S
C1336      C1337   1.413       .  A
C1337      C1338   1.405       .  A
C1337      H1340   1.085       .  S
C1338      C1341   1.443       .  S
C1341      N1343   1.157       .  T
C1342      N1344   1.157       .  T
C1345      C1346   1.408   1_455  A
C1345      C1350   1.418       .  A
C1346      C1347   1.413       .  A
C1346      H1351   1.083       .  S
C1347      C1348   1.418   1_655  A
C1347      C1354   1.442       .  S
C1348      C1349   1.404       .  A
C1349      C1350   1.404       .  A
C1349      H1352   1.085       .  S
C1350      C1353   1.443       .  S
C1353      N1355   1.157       .  T
C1354      N1356   1.157       .  T
