geometry optimzed in LAMMPS
_audit_creation_date              2020-11-30 
_audit_creation_method            'lammps2cif' 
_symmetry_space_group_name_H-M    'P1' 
_symmetry_Int_Tables_number       1 
_symmetry_cell_setting            triclinic 
loop_ 
_symmetry_equiv_pos_as_xyz 
  x,y,z 
_cell_length_a                    27.34316921 
_cell_length_b                    27.330022437494918 
_cell_length_c                    27.33095459117677 
_cell_angle_alpha                 90.00620654643389 
_cell_angle_beta                  90.0065914259489 
_cell_angle_gamma                 89.9940474073485 
loop_ 
_atom_site_label 
_atom_site_type_symbol 
_atom_site_fract_x 
_atom_site_fract_y 
_atom_site_fract_z 
_atom_site_charge 
O1          O  0.75389658  0.45853776  0.94235131    -0.86800
O2          O  0.69406692  0.53225650  0.91382024    -0.83800
C3          C  0.69005839  0.57522651  0.89760525     0.96700
O4          O  0.70523857  0.58387499  0.85479402    -0.83900
O5          O  0.78686035  0.63431141  0.89642872    -0.86500
C6          C  0.82684353  0.63244509  0.92029909     1.01200
O7          O  0.84839963  0.59253792  0.92753440    -0.79300
O8          O  0.79711429  0.51879314  0.97092996    -0.79500
C9          C  0.76516492  0.48623194  0.97762094     1.01100
O10         O  0.78375313  0.44254419  0.83790040    -0.86800
O11         O  0.70996491  0.50232124  0.80934265    -0.83900
C12         C  0.73759378  0.51358046  0.77403291     0.96700
O13         O  0.77010922  0.54559813  0.78067801    -0.83900
O14         O  0.84386809  0.59696959  0.82400642    -0.86500
C15         C  0.88376484  0.57540044  0.83122085     1.01200
O16         O  0.88566106  0.53543329  0.85513858    -0.79300
O17         O  0.83538153  0.45379429  0.89690994    -0.79500
C18         C  0.82669730  0.43848566  0.85414460     1.01100
Cr19       Cr  0.73814431  0.48664832  0.87584648     1.93700
Cr20       Cr  0.77577840  0.58672364  0.84081327     1.93200
Cr21       Cr  0.83816331  0.52440164  0.91079287     1.39100
O22         O  0.78488244  0.53344361  0.87581243    -1.24500
O23         O  0.75383875  0.54084699  0.55935352    -0.86800
O24         O  0.69395445  0.46720687  0.58768109    -0.83800
C25         C  0.68995644  0.42419283  0.60374893     0.96700
O26         O  0.70511780  0.41541263  0.64655188    -0.83900
O27         O  0.78684614  0.36503408  0.60485530    -0.86500
C28         C  0.82686494  0.36697410  0.58103305     1.01200
O29         O  0.84847777  0.40689467  0.57408390    -0.79300
O30         O  0.79717540  0.48065610  0.53077493    -0.79500
C31         C  0.76517992  0.51317651  0.52408214     1.01100
O32         O  0.78350317  0.55672344  0.66392356    -0.86800
O33         O  0.70984670  0.49686976  0.69227778    -0.83900
C34         C  0.73751303  0.48554365  0.72755102     0.96700
O35         O  0.76995407  0.45345795  0.72085823    -0.83900
O36         O  0.84371907  0.40216341  0.67751950    -0.86500
C37         C  0.88359540  0.42381692  0.67049362     1.01200
O38         O  0.88548336  0.46387560  0.64672476    -0.79300
O39         O  0.83515596  0.54555158  0.60495974    -0.79500
C40         C  0.82645360  0.56075579  0.64775455     1.01100
Cr41       Cr  0.73801207  0.51267634  0.62581283     1.93700
Cr42       Cr  0.77565269  0.41247698  0.66062479     1.93200
Cr43       Cr  0.83811457  0.47498713  0.59096860     1.39100
O44         O  0.78477265  0.46585801  0.62580209    -1.24500
O45         O  0.74851676  0.45851189  0.05936093    -0.86800
O46         O  0.80851383  0.53208347  0.08766485    -0.83800
C47         C  0.81260599  0.57507625  0.10377680     0.96700
O48         O  0.79746692  0.58384881  0.14658030    -0.83900
O49         O  0.71581281  0.63433563  0.10483890    -0.86500
C50         C  0.67570925  0.63247595  0.08115410     1.01200
O51         O  0.65404097  0.59258161  0.07417475    -0.79300
O52         O  0.70521671  0.51873414  0.03079918    -0.79500
C53         C  0.73720002  0.48620150  0.02409664     1.01100
O54         O  0.71889680  0.44268149  0.16398065    -0.86800
O55         O  0.79259828  0.50249299  0.19227738    -0.83900
C56         C  0.76494902  0.51392135  0.22752678     0.96700
O57         O  0.73257027  0.54604814  0.22082480    -0.83900
O58         O  0.65892077  0.59735516  0.17750039    -0.86500
C59         C  0.61903006  0.57571077  0.17053979     1.01200
O60         O  0.61707743  0.53562275  0.14682534    -0.79300
O61         O  0.66721844  0.45388318  0.10504357    -0.79500
C62         C  0.67592656  0.43868647  0.14784502     1.01100
Cr63       Cr  0.76441603  0.48667066  0.12582209     1.93700
Cr64       Cr  0.72694542  0.58693967  0.16060813     1.93200
Cr65       Cr  0.66434238  0.52445779  0.09102773     1.39100
O66         O  0.71772232  0.53354255  0.12581951    -1.24500
O67         O  0.79237608  0.49716728  0.30930672    -0.86800
O68         O  0.71869137  0.55699558  0.33796168    -0.83800
C69         C  0.67575622  0.56103400  0.35420427     0.96700
O70         O  0.66705943  0.54572706  0.39696170    -0.83900
O71         O  0.61663285  0.46421454  0.35514910    -0.86500
C72         C  0.61846397  0.42426806  0.33119512     1.01200
O73         O  0.65833318  0.40268796  0.32387796    -0.79300
O74         O  0.73211658  0.45404554  0.28058985    -0.79500
C75         C  0.76475159  0.48593888  0.27398020     1.01100
O76         O  0.80824915  0.46712276  0.41366537    -0.86800
O77         O  0.74852666  0.54087683  0.44235746    -0.83900
C78         C  0.73724098  0.51316623  0.47759829     0.96700
O79         O  0.70528783  0.48061764  0.47087474    -0.83900
O80         O  0.65394207  0.40697230  0.42740762    -0.86500
C81         C  0.67549446  0.36707572  0.42009396     1.01200
O82         O  0.71543240  0.36522101  0.39616568    -0.79300
O83         O  0.79699615  0.41563125  0.35451093    -0.79500
C84         C  0.81225046  0.42420728  0.39730976     1.01100
Cr85       Cr  0.76422834  0.51281509  0.37581875     1.93700
Cr86       Cr  0.66419673  0.47512082  0.41076306     1.93200
Cr87       Cr  0.72645022  0.41285687  0.34062386     1.39100
O88         O  0.71743445  0.46607998  0.37572874    -1.24500
O89         O  0.19199071  0.79101459  0.50270113    -0.86800
O90         O  0.16349209  0.71724139  0.44301950    -0.83800
C91         C  0.14745810  0.67420654  0.43910320     0.96700
O92         O  0.10473963  0.66537955  0.45439449    -0.83900
O93         O  0.14676602  0.61514391  0.53600578    -0.86500
C94         C  0.17069357  0.61714493  0.57596532     1.01200
O95         O  0.17774332  0.65709127  0.59751116    -0.79300
O96         O  0.22079448  0.73091534  0.54601252    -0.79500
C97         C  0.22735892  0.76344584  0.51398015     1.01100
O98         O  0.08751264  0.80674345  0.53281616    -0.86800
O99         O  0.05903061  0.74674949  0.45919107    -0.83900
C100        C  0.02387050  0.73538573  0.48695424     0.96700
O101        O  0.03068680  0.70337220  0.51944572    -0.83900
O102        O  0.07430470  0.65220102  0.59316618    -0.86500
C103        C  0.08141872  0.67387725  0.63304098     1.01200
O104        O  0.10519717  0.71393869  0.63484434    -0.79300
O105        O  0.14664443  0.79568857  0.58430776    -0.79500
C106        C  0.10381921  0.81083049  0.57573951     1.01100
Cr107      Cr  0.12550612  0.76270979  0.48717268     1.93700
Cr108      Cr  0.09094604  0.66249081  0.52499714     1.93200
Cr109      Cr  0.16074672  0.72514327  0.58720519     1.39100
O110        O  0.12573423  0.71592868  0.53397422    -1.24500
O111        O  0.94207847  0.75216590  0.45954161    -0.86800
O112        O  0.91364932  0.69237890  0.53323452    -0.83800
C113        C  0.89760827  0.68841677  0.57625792     0.96700
O114        O  0.85489603  0.70373834  0.58509439    -0.83900
O115        O  0.89689986  0.78532874  0.63538032    -0.86500
C116        C  0.92073641  0.82533597  0.63344897     1.01200
O117        O  0.92784743  0.84689411  0.59352353    -0.79300
O118        O  0.97090419  0.79539590  0.51970050    -0.79500
C119        C  0.97743083  0.76339051  0.48714036     1.01100
O120        O  0.83765893  0.78227331  0.44386082    -0.86800
O121        O  0.80913147  0.70859461  0.50374584    -0.83900
C122        C  0.77395813  0.73632133  0.51520793     0.96700
O123        O  0.78081589  0.76881711  0.54720871    -0.83900
O124        O  0.82447661  0.84251007  0.59832007    -0.86500
C125        C  0.83161522  0.88237591  0.57664596     1.01200
O126        O  0.85536950  0.88418781  0.53658708    -0.79300
O127        O  0.89684155  0.83372032  0.45489827    -0.79500
C128        C  0.85402081  0.82516835  0.43973952     1.01100
Cr129      Cr  0.87563140  0.73658389  0.48782385     1.93700
Cr130      Cr  0.84109745  0.77434743  0.58803961     1.93200
Cr131      Cr  0.91090320  0.83658595  0.52544600     1.39100
O132        O  0.87587567  0.78335649  0.53462185    -1.24500
O133        O  0.55907666  0.75306347  0.54220307    -0.86800
O134        O  0.58760989  0.69308652  0.46861943    -0.83800
C135        C  0.60397047  0.68895839  0.42572761     0.96700
O136        O  0.64677843  0.70413493  0.41719541    -0.83900
O137        O  0.60515369  0.78577740  0.36665140    -0.86500
C138        C  0.58144241  0.82587711  0.36842452     1.01200
O139        O  0.57434962  0.84760718  0.40827483    -0.79300
O140        O  0.53076697  0.79655475  0.48200547    -0.79500
C141        C  0.52392347  0.76448873  0.51442855     1.01100
O142        O  0.66363657  0.78255555  0.55840620    -0.86800
O143        O  0.69209775  0.70888432  0.49868884    -0.83900
C144        C  0.72742496  0.73647031  0.48733818     0.96700
O145        O  0.72081269  0.76900153  0.45532349    -0.83900
O146        O  0.67768506  0.84277433  0.40377916    -0.86500
C147        C  0.67067980  0.88273393  0.42532914     1.01200
O148        O  0.64685846  0.88471954  0.46534895    -0.79300
O149        O  0.60494284  0.83447798  0.54702732    -0.79500
C150        C  0.64769268  0.82562558  0.56225148     1.01100
Cr151      Cr  0.62559440  0.73712808  0.51425087     1.93700
Cr152      Cr  0.66076282  0.77469034  0.41419890     1.93200
Cr153      Cr  0.59104628  0.83737787  0.47643413     1.39100
O154        O  0.62579819  0.78391641  0.46744993    -1.24500
O155        O  0.30905619  0.79138966  0.49742954    -0.86800
O156        O  0.33761238  0.71772508  0.55730404    -0.83800
C157        C  0.35399565  0.67483423  0.56139245     0.96700
O158        O  0.39682026  0.66631341  0.54625890    -0.83900
O159        O  0.35529191  0.61581630  0.46456000    -0.86500
C160        C  0.33148044  0.61764733  0.42452411     1.01200
O161        O  0.32437467  0.65751001  0.40283725    -0.79300
O162        O  0.28072555  0.73119380  0.45396100    -0.79500
C163        C  0.27387972  0.76364228  0.48602022     1.01100
O164        O  0.41361185  0.80756796  0.46793493    -0.86800
O165        O  0.44204348  0.74783065  0.54167587    -0.83900
C166        C  0.47742778  0.73654583  0.51414204     0.96700
O167        O  0.47088254  0.70458160  0.48153398    -0.83900
O168        O  0.42780750  0.65309104  0.40769258    -0.86500
C169        C  0.42074382  0.67463695  0.36775750     1.01200
O170        O  0.39684204  0.71461112  0.36576795    -0.79300
O171        O  0.35488187  0.79623539  0.41603942    -0.79500
C172        C  0.39762544  0.81146150  0.42488090     1.01100
Cr173      Cr  0.37557875  0.76340219  0.51334854     1.93700
Cr174      Cr  0.41085331  0.66340772  0.47573397     1.93200
Cr175      Cr  0.34103105  0.72564592  0.41311047     1.39100
O176        O  0.37582110  0.71663404  0.46654147    -1.24500
O177        O  0.80837287  0.03225306  0.91396406    -0.86800
O178        O  0.74819847  0.95878736  0.94228841    -0.83800
C179        C  0.73698382  0.98649183  0.97756689     0.96700
O180        O  0.70517347  0.01919719  0.97086162    -0.83900
O181        O  0.65418206  0.09315332  0.92741328    -0.86500
C182        C  0.67597042  0.13297201  0.92038474     1.01200
O183        O  0.71598536  0.13470974  0.89657574    -0.79300
O184        O  0.79745202  0.08401619  0.85499762    -0.79500
C185        C  0.81259018  0.07521295  0.89780732     1.01100
O186        O  0.79250362  0.00260152  0.80941859    -0.86800
O187        O  0.71858509  0.94303663  0.83777495    -0.83900
C188        C  0.67562670  0.93910787  0.85394733     0.96700
O189        O  0.66690612  0.95439069  0.89671472    -0.83900
O190        O  0.61695017  0.03610645  0.85489344    -0.86500
C191        C  0.61892961  0.07610253  0.83105261     1.01200
O192        O  0.65885379  0.09768098  0.82400434    -0.79300
O193        O  0.73251572  0.04612508  0.78073981    -0.79500
C194        C  0.76494741  0.01402567  0.77409354     1.01100
Cr195      Cr  0.76420027  0.98691362  0.87585564     1.93700
Cr196      Cr  0.66425584  0.02497523  0.91065269     1.93200
Cr197      Cr  0.72692662  0.08717338  0.84090222     1.39100
O198        O  0.71761547  0.03387718  0.87580052    -1.24500
O199        O  0.80862797  0.96745680  0.58786444    -0.86800
O200        O  0.74903882  0.04129212  0.55927536    -0.83800
C201        C  0.73764577  0.01366868  0.52398235     0.96700
O202        O  0.70558923  0.98120619  0.53065339    -0.83900
O203        O  0.65404790  0.90758413  0.57395803    -0.86500
C204        C  0.67544300  0.86760342  0.58122591     1.01200
O205        O  0.71545814  0.86560217  0.60505350    -0.79300
O206        O  0.79724323  0.91583950  0.64684758    -0.79500
C207        C  0.81251345  0.92448251  0.60407479     1.01100
O208        O  0.79265802  0.99732999  0.69235304    -0.86800
O209        O  0.71917003  0.05733101  0.66375842    -0.83900
C210        C  0.67624241  0.06138506  0.64751380     0.96700
O211        O  0.66760208  0.04620901  0.60470055    -0.83900
O212        O  0.61693558  0.96460914  0.64641776    -0.86500
C213        C  0.61876900  0.92460317  0.67030241     1.01200
O214        O  0.65862589  0.90298348  0.67750014    -0.79300
O215        O  0.73239024  0.95411870  0.72087594    -0.79500
C216        C  0.76494624  0.98606286  0.72759906     1.01100
Cr217      Cr  0.76463479  0.01312372  0.62580943     1.93700
Cr218      Cr  0.66450935  0.97564646  0.59077224     1.93200
Cr219      Cr  0.72669456  0.91310077  0.66072071     1.39100
O220        O  0.71775749  0.96643500  0.62576353    -1.24500
O221        O  0.78389507  0.05705151  0.33758186    -0.86800
O222        O  0.71003267  0.99730762  0.30933080    -0.83800
C223        C  0.73762291  0.98589348  0.27403580     0.96700
O224        O  0.77004667  0.95379351  0.28070725    -0.83900
O225        O  0.84371286  0.90236801  0.32406464    -0.86500
C226        C  0.88365052  0.92391355  0.33109010     1.01200
O227        O  0.88564693  0.96400904  0.35478353    -0.79300
O228        O  0.83560924  0.04583743  0.39650111    -0.79500
C229        C  0.82688141  0.06104157  0.35370740     1.01100
O230        O  0.75424536  0.04130290  0.44219649    -0.86800
O231        O  0.69419685  0.96769784  0.41391467    -0.83900
C232        C  0.68999842  0.92471356  0.39778000     0.96700
O233        O  0.70513996  0.91591751  0.35497944    -0.83900
O234        O  0.78667549  0.86548800  0.39670282    -0.86500
C235        C  0.82672542  0.86728700  0.42045997     1.01200
O236        O  0.84850454  0.90712671  0.42742402    -0.79300
O237        O  0.79751733  0.98107852  0.47077928    -0.79500
C238        C  0.76557321  0.01364474  0.47748082     1.01100
Cr239      Cr  0.73830800  0.01311591  0.37575410     1.93700
Cr240      Cr  0.77566853  0.91286170  0.34093084     1.93200
Cr241      Cr  0.83835716  0.97526160  0.41054224     1.39100
O242        O  0.78495724  0.96622906  0.37574376    -1.24500
O243        O  0.78336239  0.94255772  0.16379368    -0.86800
O244        O  0.70995306  0.00272605  0.19231599    -0.83800
C245        C  0.73769670  0.01389095  0.22757474     0.96700
O246        O  0.77034256  0.04574980  0.22088466    -0.83900
O247        O  0.84423957  0.09675717  0.17751404    -0.86500
C248        C  0.88404748  0.07504656  0.17027440     1.01200
O249        O  0.88576563  0.03501575  0.14644080    -0.79300
O250        O  0.83500937  0.95355293  0.10478838    -0.79500
C251        C  0.82630369  0.93838978  0.14760070     1.01100
O252        O  0.75356155  0.95867814  0.05928916    -0.86800
O253        O  0.69410310  0.03264248  0.08782947    -0.83900
C254        C  0.69029389  0.07562671  0.10405027     0.96700
O255        O  0.70555619  0.08422010  0.14684544    -0.83900
O256        O  0.78736262  0.13425392  0.10510758    -0.86500
C257        C  0.82735065  0.13221620  0.08126363     1.01200
O258        O  0.84873794  0.09221490  0.07402332    -0.79300
O259        O  0.79708869  0.01870507  0.03071473    -0.79500
C260        C  0.76494885  0.98633761  0.02403473     1.01100
Cr261      Cr  0.73798078  0.98686133  0.12580435     1.93700
Cr262      Cr  0.77611280  0.08678427  0.16075809     1.93200
Cr263      Cr  0.83818142  0.02413206  0.09082162     1.39100
O264        O  0.78494997  0.03344110  0.12579662    -1.24500
O265        O  0.91419829  0.80696441  0.03319618    -0.86800
O266        O  0.94273564  0.74732913  0.95938319    -0.83800
C267        C  0.97802282  0.73593969  0.98700824     0.96700
O268        O  0.97133693  0.70384730  0.01944397    -0.83900
O269        O  0.92804840  0.65244463  0.09309309    -0.86500
C270        C  0.92088393  0.67395293  0.13303364     1.01200
O271        O  0.89703345  0.71395692  0.13502861    -0.79300
O272        O  0.85519194  0.79565912  0.08477004    -0.79500
C273        C  0.89795843  0.81089119  0.07614691     1.01100
O274        O  0.80976223  0.79109008  0.00341335    -0.86800
O275        O  0.83820506  0.71749805  0.94341903    -0.83900
C276        C  0.85437079  0.67452063  0.93937300     0.96700
O277        O  0.89717534  0.66582860  0.95450783    -0.83900
O278        O  0.85556298  0.61523365  0.03617849    -0.86500
C279        C  0.83174985  0.61710211  0.07621431     1.01200
O280        O  0.82459761  0.65699784  0.09781359    -0.79300
O281        O  0.78120823  0.73079331  0.04661216    -0.79500
C282        C  0.77450491  0.76341877  0.01471525     1.01100
Cr283      Cr  0.87622915  0.76297596  0.98756987     1.93700
Cr284      Cr  0.91119048  0.66280016  0.02505642     1.93200
Cr285      Cr  0.84134458  0.72509775  0.08760080     1.39100
O286        O  0.87625711  0.71609879  0.03426292    -1.24500
O287        O  0.66436280  0.71752920  0.05797058    -0.86800
O288        O  0.69281072  0.79120394  0.99811645    -0.83800
C289        C  0.72804329  0.76350170  0.98677483     0.96700
O290        O  0.72133975  0.73100097  0.95475564    -0.83900
O291        O  0.67802612  0.65722912  0.90345365    -0.86500
C292        C  0.67092172  0.61732710  0.92507927     1.01200
O293        O  0.64713602  0.61547104  0.96511833    -0.79300
O294        O  0.60542902  0.66584754  0.04675917    -0.79500
C295        C  0.64821022  0.67454256  0.06196934     1.01100
O296        O  0.55987159  0.74732147  0.04199804    -0.86800
O297        O  0.58832341  0.80717698  0.96831959    -0.83900
C298        C  0.60448367  0.81118923  0.92533781     0.96700
O299        O  0.64726106  0.79596717  0.91664155    -0.83900
O300        O  0.60555712  0.71432277  0.86627490    -0.86500
C301        C  0.58177214  0.67428249  0.86813185     1.01200
O302        O  0.57466717  0.65265440  0.90803125    -0.79300
O303        O  0.53134303  0.70395312  0.98180098    -0.79500
C304        C  0.52463726  0.73597551  0.01429974     1.01100
Cr305      Cr  0.62634158  0.76308561  0.01387944     1.93700
Cr306      Cr  0.66122130  0.72537782  0.91374977     1.93200
Cr307      Cr  0.59146817  0.66294848  0.97617560     1.39100
O308        O  0.62634289  0.71629041  0.96708739    -1.24500
O309        O  0.33847273  0.78242781  0.05775736    -0.86800
O310        O  0.30992836  0.70862142  0.99811361    -0.83800
C311        C  0.27464757  0.73625738  0.98672982     0.96700
O312        O  0.28134104  0.76869414  0.95464024    -0.83900
O313        O  0.32464655  0.84233342  0.90324455    -0.86500
C314        C  0.33181626  0.88227587  0.92474680     1.01200
O315        O  0.35566719  0.88427243  0.96474973    -0.79300
O316        O  0.39747827  0.83400614  0.04646202    -0.79500
C317        C  0.35470731  0.82538334  0.06168526     1.01100
O318        O  0.44291139  0.75261925  0.04188443    -0.86800
O319        O  0.41445878  0.69264210  0.96827978    -0.83900
C320        C  0.39829655  0.68860300  0.92530049     0.96700
O321        O  0.35549333  0.70374187  0.91661001    -0.83900
O322        O  0.39712243  0.78541168  0.86603798    -0.86500
C323        C  0.42094577  0.82544250  0.86791161     1.01200
O324        O  0.42810489  0.84703704  0.90780803    -0.79300
O325        O  0.47147622  0.79582951  0.98160409    -0.79500
C326        C  0.47817292  0.76391991  0.01421810     1.01100
Cr327      Cr  0.37644025  0.73679491  0.01376564     1.93700
Cr328      Cr  0.34149095  0.77429564  0.91359639     1.93200
Cr329      Cr  0.41134415  0.83682929  0.97590272     1.39100
O330        O  0.37642359  0.78349419  0.96689623    -1.24500
O331        O  0.08833360  0.69271559  0.03306455    -0.86800
O332        O  0.05983051  0.75252502  0.95940630    -0.83800
C333        C  0.02454821  0.76388316  0.98704677     0.96700
O334        O  0.03125349  0.79590120  0.01956881    -0.83900
O335        O  0.07462628  0.84719985  0.09338215    -0.86500
C336        C  0.08163848  0.82548422  0.13325623     1.01200
O337        O  0.10551994  0.78550265  0.13511314    -0.79300
O338        O  0.14724638  0.70391489  0.08479750    -0.79500
C339        C  0.10447295  0.68870333  0.07604644     1.01100
O340        O  0.19284480  0.70864343  0.00332793    -0.86800
O341        O  0.16434043  0.78226535  0.94348307    -0.83900
C342        C  0.14820784  0.82524952  0.93946026     0.96700
O343        O  0.10542981  0.83400808  0.95465687    -0.83900
O344        O  0.14712058  0.88436928  0.03624347    -0.86500
C345        C  0.17099215  0.88252107  0.07623057     1.01200
O346        O  0.17800496  0.84265005  0.09794936    -0.79300
O347        O  0.22140412  0.76883944  0.04667034    -0.79500
C348        C  0.22811996  0.73630097  0.01467067     1.01100
Cr349      Cr  0.12633567  0.73677324  0.98755514     1.93700
Cr350      Cr  0.09143283  0.83691028  0.02523093     1.93200
Cr351      Cr  0.16121941  0.77449505  0.08767281     1.39100
O352        O  0.12632814  0.78357479  0.03433403    -1.24500
O353        O  0.25440938  0.04125397  0.05861633    -0.86800
O354        O  0.19457187  0.96750446  0.08712377    -0.83800
C355        C  0.19043227  0.92460318  0.10348365     0.96700
O356        O  0.20571919  0.91599322  0.14626306    -0.83900
O357        O  0.28728281  0.86566037  0.10454059    -0.86500
C358        C  0.32730733  0.86748659  0.08076574     1.01200
O359        O  0.34898534  0.90734853  0.07364118    -0.79300
O360        O  0.29781968  0.98108691  0.03012410    -0.79500
C361        C  0.26579361  0.01356919  0.02337494     1.01100
O362        O  0.28402014  0.05728403  0.16313693    -0.86800
O363        O  0.21037635  0.99744385  0.19158022    -0.83900
C364        C  0.23797293  0.98612383  0.22690639     0.96700
O365        O  0.27059417  0.95422011  0.22027082    -0.83900
O366        O  0.34437551  0.90281280  0.17702076    -0.86500
C367        C  0.38427486  0.92440504  0.16993261     1.01200
O368        O  0.38616170  0.96443609  0.14611603    -0.79300
O369        O  0.33579295  0.04605626  0.10426994    -0.79500
C370        C  0.32701162  0.06125406  0.14705079     1.01100
Cr371      Cr  0.23857596  0.01315263  0.12510396     1.93700
Cr372      Cr  0.27627220  0.91313938  0.16018744     1.93200
Cr373      Cr  0.33873341  0.97548238  0.09036214     1.39100
O374        O  0.28537729  0.96641074  0.12521111    -1.24500
O375        O  0.24913730  0.04101664  0.94152869    -0.86800
O376        O  0.30879001  0.96725891  0.91315321    -0.83800
C377        C  0.31268056  0.92422467  0.89713053     0.96700
O378        O  0.29740012  0.91537980  0.85438912    -0.83900
O379        O  0.21577080  0.86521415  0.89641940    -0.86500
C380        C  0.17575975  0.86722291  0.92023313     1.01200
O381        O  0.15422997  0.90717756  0.92726929    -0.79300
O382        O  0.20577235  0.98096074  0.97033428    -0.79500
C383        C  0.23781966  0.01345815  0.97689447     1.01100
O384        O  0.21919216  0.05670100  0.83698429    -0.86800
O385        O  0.29268671  0.99662993  0.80857437    -0.83900
C386        C  0.26492711  0.98525411  0.77339593     0.96700
O387        O  0.23242872  0.95326941  0.78022713    -0.83900
O388        O  0.15872248  0.90218477  0.82385652    -0.86500
C389        C  0.11888540  0.92390527  0.83091855     1.01200
O390        O  0.11710221  0.96402244  0.85462641    -0.79300
O391        O  0.16771924  0.04573945  0.89613943    -0.79500
C392        C  0.17630384  0.06083288  0.85328953     1.01100
Cr393      Cr  0.26471322  0.01267510  0.87506184     1.93700
Cr394      Cr  0.22684303  0.91246634  0.84054161     1.93200
Cr395      Cr  0.16465692  0.97521390  0.91025418     1.39100
O396        O  0.21788590  0.96593100  0.87528951    -1.24500
O397        O  0.29236071  0.00194169  0.69157197    -0.86800
O398        O  0.21862750  0.94214586  0.66317602    -0.83800
C399        C  0.17562461  0.93819529  0.64709370     0.96700
O400        O  0.16684607  0.95340886  0.60431866    -0.83900
O401        O  0.11656074  0.03509267  0.64617424    -0.86500
C402        C  0.11852104  0.07509465  0.67004436     1.01200
O403        O  0.15844305  0.09663089  0.67714434    -0.79300
O404        O  0.23221109  0.04519336  0.72030765    -0.79500
C405        C  0.26476112  0.01320698  0.72690694     1.01100
O406        O  0.30809857  0.03189078  0.58709125    -0.86800
O407        O  0.24820364  0.95811291  0.55865387    -0.83900
C408        C  0.23683246  0.98577461  0.52339725     0.96700
O409        O  0.20484068  0.01830219  0.53013951    -0.83900
O410        O  0.15367255  0.09213815  0.57365300    -0.86500
C411        C  0.17531498  0.13202155  0.58079486     1.01200
O412        O  0.21534290  0.13385442  0.60460004    -0.79300
O413        O  0.29702728  0.08347468  0.64619159    -0.79500
C414        C  0.31226465  0.07482026  0.60340064     1.01100
Cr415      Cr  0.26409342  0.98625462  0.62511537     1.93700
Cr416      Cr  0.16394381  0.02398786  0.59039894     1.93200
Cr417      Cr  0.22648693  0.08631163  0.66021946     1.39100
O418        O  0.21732602  0.03303917  0.62523371    -1.24500
O419        O  0.25355089  0.95821357  0.44157517    -0.86800
O420        O  0.19380221  0.03190186  0.41317968    -0.83800
C421        C  0.18988052  0.07492936  0.39714212     0.96700
O422        O  0.20514913  0.08373365  0.35439637    -0.83900
O423        O  0.28670400  0.13402688  0.39646800    -0.86500
C424        C  0.32674327  0.13208314  0.42023992     1.01200
O425        O  0.34830395  0.09214739  0.42731511    -0.79300
O426        O  0.29688356  0.01830562  0.47036714    -0.79500
C427        C  0.26482783  0.98582257  0.47692608     1.01100
O428        O  0.28354337  0.94252087  0.33700540    -0.86800
O429        O  0.20999770  0.00250145  0.30857968    -0.83900
C430        C  0.23774826  0.01397066  0.27343033     0.96700
O431        O  0.27020563  0.04597634  0.28030256    -0.83900
O432        O  0.34382304  0.09711317  0.32393577    -0.86500
C433        C  0.38370014  0.07545362  0.33097682     1.01200
O434        O  0.38555005  0.03534384  0.35468415    -0.79300
O435        O  0.33503234  0.95355106  0.39613978    -0.79500
C436        C  0.32646445  0.93849037  0.35326590     1.01100
Cr437      Cr  0.23795500  0.98650398  0.37509150     1.93700
Cr438      Cr  0.27571056  0.08675445  0.34059977     1.93200
Cr439      Cr  0.33798945  0.02408486  0.41029552     1.39100
O440        O  0.28473577  0.03329811  0.37533309    -1.24500
O441        O  0.03383940  0.91269107  0.80783881    -0.86800
O442        O  0.96003555  0.94120688  0.74817396    -0.83800
C443        C  0.98771069  0.97644640  0.73681366     0.96700
O444        O  0.02013279  0.96973966  0.70472857    -0.83900
O445        O  0.09368501  0.92633168  0.65320232    -0.86500
C446        C  0.13362290  0.91912206  0.67469660     1.01200
O447        O  0.13558025  0.89529172  0.71471169    -0.79300
O448        O  0.08541395  0.85366283  0.79649556    -0.79500
C449        C  0.07679031  0.89646613  0.81175599     1.01100
O450        O  0.00393302  0.80818322  0.79196201    -0.86800
O451        O  0.94395397  0.83671529  0.71844859    -0.83900
C452        C  0.93989160  0.85287964  0.67547607     0.96700
O453        O  0.95506197  0.89568312  0.66675578    -0.83900
O454        O  0.03649338  0.85391583  0.61611218    -0.86500
C455        C  0.07646575  0.83001956  0.61788466     1.01200
O456        O  0.09815579  0.82285145  0.65773744    -0.79300
O457        O  0.04701299  0.77957214  0.73162236    -0.79500
C458        C  0.01510682  0.77290855  0.76422546     1.01100
Cr459      Cr  0.98816093  0.87470220  0.76387404     1.93700
Cr460      Cr  0.02560343  0.90959663  0.66366060     1.93200
Cr461      Cr  0.08808183  0.83967554  0.72589932     1.39100
O462        O  0.03480057  0.87466166  0.71695782    -1.24500
O463        O  0.96875067  0.58667521  0.80796766    -0.86800
O464        O  0.04233672  0.55816359  0.74803909    -0.83800
C465        C  0.01467125  0.52287426  0.73677287     0.96700
O466        O  0.98213922  0.52953682  0.70478500    -0.83900
O467        O  0.90834249  0.57283673  0.65359431    -0.86500
C468        C  0.86848036  0.57996248  0.67523162     1.01200
O469        O  0.86661802  0.60382831  0.71524024    -0.79300
O470        O  0.91709934  0.64566055  0.79681763    -0.79500
C471        C  0.92580211  0.60287345  0.81203393     1.01100
O472        O  0.99847720  0.69117684  0.79194114    -0.86800
O473        O  0.05820046  0.66268462  0.71811906    -0.83900
C474        C  0.06220422  0.64645677  0.67515044     0.96700
O475        O  0.04696193  0.60366363  0.66649666    -0.83900
O476        O  0.96518880  0.64535123  0.61625628    -0.86500
C477        C  0.92517877  0.66918063  0.61822492     1.01200
O478        O  0.90366568  0.67630603  0.65816550    -0.79300
O479        O  0.95507613  0.71973432  0.73180082    -0.79500
C480        C  0.98711663  0.72644122  0.76428068     1.01100
Cr481      Cr  0.01421460  0.62467549  0.76379036     1.93700
Cr482      Cr  0.97640900  0.58968639  0.66375098     1.93200
Cr483      Cr  0.91407701  0.65954740  0.72624514     1.39100
O484        O  0.96738049  0.62463412  0.71707738    -1.24500
O485        O  0.96857885  0.41259107  0.69368566    -0.86800
O486        O  0.04237690  0.44111263  0.75336110    -0.83800
C487        C  0.01472900  0.47638104  0.76474419     0.96700
O488        O  0.98227684  0.46966757  0.79680382    -0.83900
O489        O  0.90866185  0.42623178  0.84832295    -0.86500
C490        C  0.86874064  0.41913839  0.82673882     1.01200
O491        O  0.86681962  0.39527027  0.78673647    -0.79300
O492        O  0.91697082  0.35358048  0.70497425    -0.79500
C493        C  0.92563324  0.39637196  0.68972544     1.01100
O494        O  0.99846049  0.30811039  0.70948578    -0.86800
O495        O  0.05845952  0.33659669  0.78302617    -0.83900
C496        C  0.06260529  0.35277795  0.82598723     0.96700
O497        O  0.04736031  0.39555615  0.83476023    -0.83900
O498        O  0.96599555  0.35377975  0.88529705    -0.86500
C499        C  0.92601906  0.32992389  0.88353880     1.01200
O500        O  0.90426431  0.32280081  0.84371190    -0.79300
O501        O  0.95536829  0.27946125  0.76978894    -0.79500
C502        C  0.98728349  0.27281442  0.73717905     1.01100
Cr503      Cr  0.01424587  0.37460274  0.73762612     1.93700
Cr504      Cr  0.97679789  0.40948393  0.83783243     1.93200
Cr505      Cr  0.91431064  0.33960353  0.77555735     1.39100
O506        O  0.96760171  0.37456388  0.78452162    -1.24500
O507        O  0.03359825  0.08650950  0.69347303    -0.86800
O508        O  0.96013869  0.05817710  0.75363690    -0.83800
C509        C  0.98783943  0.02289516  0.76481650     0.96700
O510        O  0.02049899  0.02956462  0.79667034    -0.83900
O511        O  0.09440810  0.07289461  0.84765749    -0.86500
C512        C  0.13421271  0.07999871  0.82591231     1.01200
O513        O  0.13597781  0.10382957  0.78589256    -0.79300
O514        O  0.08530543  0.14548083  0.70441733    -0.79500
C515        C  0.07654646  0.10266132  0.68928834     1.01100
O516        O  0.00394684  0.19106931  0.70944259    -0.86800
O517        O  0.94439695  0.16268039  0.78339372    -0.83900
C518        C  0.94046537  0.14647900  0.82636760     0.96700
O519        O  0.95576195  0.10370858  0.83505518    -0.83900
O520        O  0.03760433  0.14541675  0.88507369    -0.86500
C521        C  0.07760860  0.16923108  0.88303589     1.01200
O522        O  0.09905300  0.17636143  0.84305174    -0.79300
O523        O  0.04745090  0.21969992  0.76946955    -0.79500
C524        C  0.01531857  0.22636018  0.73707263     1.01100
Cr525      Cr  0.98826206  0.12461420  0.73769751     1.93700
Cr526      Cr  0.02631528  0.08972649  0.83765578     1.93200
Cr527      Cr  0.08848567  0.15952180  0.77497617     1.39100
O528        O  0.03520851  0.12462733  0.78429828    -1.24500
O529        O  0.46925266  0.91309239  0.19328496    -0.86800
O530        O  0.54268392  0.94160368  0.25343084    -0.83800
C531        C  0.51494197  0.97685911  0.26461211     0.96700
O532        O  0.48230094  0.97015351  0.29647181    -0.83900
O533        O  0.40842174  0.92676074  0.34748972    -0.86500
C534        C  0.36860568  0.91951302  0.32579798     1.01200
O535        O  0.36687402  0.89567694  0.28576795    -0.79300
O536        O  0.41762450  0.85406530  0.20427155    -0.79500
C537        C  0.42631452  0.89688839  0.18913162     1.01100
O538        O  0.49907295  0.80859142  0.20933344    -0.86800
O539        O  0.55855150  0.83710181  0.28329760    -0.83900
C540        C  0.56237048  0.85330744  0.32628552     0.96700
O541        O  0.54710291  0.89609868  0.33489913    -0.83900
O542        O  0.46530640  0.85434427  0.38494693    -0.86500
C543        C  0.42532342  0.83048946  0.38290741     1.01200
O544        O  0.40393898  0.82324248  0.34290844    -0.79300
O545        O  0.45558337  0.77997315  0.26936421    -0.79500
C546        C  0.48771041  0.77331825  0.23697808     1.01100
Cr547      Cr  0.51465411  0.87509320  0.23754934     1.93700
Cr548      Cr  0.47654533  0.91000932  0.33748996     1.93200
Cr549      Cr  0.41447269  0.84007032  0.27483748     1.39100
O550        O  0.46769807  0.87505860  0.28414244    -1.24500
O551        O  0.44430860  0.66328353  0.28285650    -0.86800
O552        O  0.50449272  0.69158593  0.20939119    -0.83800
C553        C  0.51570171  0.72686333  0.23709969     0.96700
O554        O  0.54752781  0.72016234  0.26978972    -0.83900
O555        O  0.59850171  0.67672890  0.34376110    -0.86500
C556        C  0.57670532  0.66969845  0.38357419     1.01200
O557        O  0.53667803  0.64591048  0.38530266    -0.79300
O558        O  0.45522658  0.60430408  0.33460133    -0.79500
C559        C  0.44008329  0.64711257  0.32580840     1.01100
O560        O  0.46016999  0.55872874  0.25323300    -0.86800
O561        O  0.53408488  0.58705863  0.19366162    -0.83900
C562        C  0.57705337  0.60320807  0.18975197     0.96700
O563        O  0.58578521  0.64598278  0.20501255    -0.83900
O564        O  0.63575123  0.60418198  0.28676671    -0.86500
C565        C  0.63375838  0.58035438  0.32677388     1.01200
O566        O  0.59382222  0.57332208  0.34833457    -0.79300
O567        O  0.52016156  0.53005895  0.29676621    -0.79500
C568        C  0.48771615  0.52340404  0.26468505     1.01100
Cr569      Cr  0.48848035  0.62516057  0.23752750     1.93700
Cr570      Cr  0.58844004  0.65994763  0.27558954     1.93200
Cr571      Cr  0.52574949  0.59022320  0.33779105     1.39100
O572        O  0.53507066  0.62510683  0.28449044    -1.24500
O573        O  0.44398767  0.33717102  0.21821425    -0.86800
O574        O  0.50355613  0.30857805  0.29205382    -0.83800
C575        C  0.51494604  0.27327687  0.26443784     0.96700
O576        O  0.54700750  0.27993602  0.23197997    -0.83900
O577        O  0.59857089  0.32321766  0.15836304    -0.86500
C578        C  0.57718766  0.33050057  0.11837991     1.01200
O579        O  0.53716806  0.35431683  0.11637353    -0.79300
O580        O  0.45539731  0.39614640  0.16659447    -0.79500
C581        C  0.44011876  0.35337657  0.17523911     1.01100
O582        O  0.45998454  0.44166509  0.24805342    -0.86800
O583        O  0.53345165  0.41306670  0.30807305    -0.83900
C584        C  0.57637336  0.39680935  0.31213175     0.96700
O585        O  0.58499789  0.35398575  0.29697348    -0.83900
O586        O  0.63569452  0.39567567  0.21537670    -0.86500
C587        C  0.63387807  0.41954644  0.17536185     1.01200
O588        O  0.59402632  0.42675255  0.15373395    -0.79300
O589        O  0.52026691  0.47015438  0.20483533    -0.79500
C590        C  0.48770404  0.47689859  0.23676220     1.01100
Cr591      Cr  0.48798395  0.37511601  0.26387242     1.93700
Cr592      Cr  0.58810337  0.34004274  0.22641797     1.93200
Cr593      Cr  0.52594818  0.40999425  0.16384865     1.39100
O594        O  0.53486778  0.37504752  0.21719167    -1.24500
O595        O  0.46872791  0.08686389  0.30779732    -0.86800
O596        O  0.54259373  0.05863170  0.24805048    -0.83800
C597        C  0.51500914  0.02333223  0.23662846     0.96700
O598        O  0.48258840  0.03000504  0.20452680    -0.83900
O599        O  0.40891632  0.07336387  0.15310992    -0.86500
C600        C  0.36897899  0.08036600  0.17466369     1.01200
O601        O  0.36698084  0.10404578  0.21476573    -0.79300
O602        O  0.41699890  0.14577457  0.29659506    -0.79500
C603        C  0.42573850  0.10298152  0.31179603     1.01100
O604        O  0.49835587  0.19148743  0.29206517    -0.86800
O605        O  0.55841544  0.16323422  0.21845072    -0.83900
C606        C  0.56263180  0.14710535  0.17546557     0.96700
O607        O  0.54749097  0.10430362  0.16666109    -0.83900
O608        O  0.46595862  0.14602399  0.11626126    -0.86500
C609        C  0.42590115  0.16976486  0.11805581     1.01200
O610        O  0.40410436  0.17670742  0.15788915    -0.79300
O611        O  0.45507060  0.22007300  0.23185255    -0.79500
C612        C  0.48701630  0.22677567  0.26441684     1.01100
Cr613      Cr  0.51430958  0.12505282  0.26386727     1.93700
Cr614      Cr  0.47696126  0.09024040  0.16361170     1.93200
Cr615      Cr  0.41425084  0.15982124  0.22602297     1.39100
O616        O  0.46766175  0.12503973  0.21698468    -1.24500
O617        O  0.06069438  0.25201558  0.04181395    -0.86800
O618        O  0.08917374  0.19233497  0.96802911    -0.83800
C619        C  0.10521382  0.18840820  0.92499923     0.96700
O620        O  0.14792935  0.20370755  0.91617086    -0.83900
O621        O  0.10590360  0.28532254  0.86595268    -0.86500
C622        C  0.08198988  0.32529061  0.86794899     1.01200
O623        O  0.07493719  0.34684100  0.90789213    -0.79300
O624        O  0.03188636  0.29533494  0.98172190    -0.79500
C625        C  0.02532380  0.26330082  0.01425240     1.01100
O626        O  0.16517493  0.28210647  0.05752589    -0.86800
O627        O  0.19363903  0.20849256  0.99752332    -0.83900
C628        C  0.22879853  0.23625732  0.98615905     0.96700
O629        O  0.22198154  0.26875778  0.95415705    -0.83900
O630        O  0.17837273  0.34248282  0.90299394    -0.86500
C631        C  0.17126145  0.38236143  0.92466461     1.01200
O632        O  0.14748983  0.38416717  0.96472945    -0.79300
O633        O  0.10604838  0.33360576  0.04647745    -0.79500
C634        C  0.14887884  0.32503443  0.06159947     1.01100
Cr635      Cr  0.12716939  0.23647862  0.01349633     1.93700
Cr636      Cr  0.16172520  0.27431263  0.91328566     1.93200
Cr637      Cr  0.09193686  0.33652585  0.97594159     1.39100
O638        O  0.12694186  0.28328906  0.96672209    -1.24500
O639        O  0.94363374  0.24673786  0.04220823    -0.86800
O640        O  0.91510675  0.30667185  0.96858628    -0.83800
C641        C  0.89873696  0.31077014  0.92569260     0.96700
O642        O  0.85590695  0.29565789  0.91716533    -0.83900
O643        O  0.89742282  0.21394186  0.86660738    -0.86500
C644        C  0.92121476  0.17388819  0.86843427     1.01200
O645        O  0.92830736  0.15219994  0.90829474    -0.79300
O646        O  0.97195447  0.20328841  0.98199578    -0.79500
C647        C  0.97880501  0.23533847  0.01445182     1.01100
O648        O  0.83906849  0.21725457  0.05836248    -0.86800
O649        O  0.81065933  0.29104381  0.99867272    -0.83900
C650        C  0.77526870  0.26352951  0.98735394     0.96700
O651        O  0.78181208  0.23094532  0.95536337    -0.83900
O652        O  0.82486770  0.15710437  0.90383610    -0.86500
C653        C  0.83192174  0.11715412  0.92535979     1.01200
O654        O  0.85580859  0.11514118  0.96534338    -0.79300
O655        O  0.89778700  0.16535196  0.04700816    -0.79500
C656        C  0.85504753  0.17419429  0.06223952     1.01100
Cr657      Cr  0.87711785  0.26269032  0.01422854     1.93700
Cr658      Cr  0.84185161  0.22513723  0.91420071     1.93200
Cr659      Cr  0.91163858  0.16245701  0.97642190     1.39100
O660        O  0.87686776  0.21590587  0.96743187    -1.24500
O661        O  0.69360695  0.29157741  0.00384806    -0.86800
O662        O  0.66507886  0.21800506  0.94385018    -0.83800
C663        C  0.64871652  0.17511442  0.93969521     0.96700
O664        O  0.60591598  0.16656768  0.95488725    -0.83900
O665        O  0.64754480  0.11602028  0.03652218    -0.86500
C666        C  0.67123868  0.11778018  0.07663108     1.01200
O667        O  0.67832415  0.15762518  0.09837694    -0.79300
O668        O  0.72191417  0.23138104  0.04734751    -0.79500
C669        C  0.72876192  0.26380724  0.01528366     1.01100
O670        O  0.58903707  0.30776461  0.03332709    -0.86800
O671        O  0.56058422  0.24805974  0.95965693    -0.83900
C672        C  0.52525750  0.23668785  0.98723543     0.96700
O673        O  0.53187613  0.20466958  0.01976034    -0.83900
O674        O  0.57499569  0.15311289  0.09352770    -0.86500
C675        C  0.58197982  0.17465935  0.13349311     1.01200
O676        O  0.60579926  0.21468332  0.13548848    -0.79300
O677        O  0.64772062  0.29637901  0.08525485    -0.79500
C678        C  0.60496512  0.31158354  0.07640218     1.01100
Cr679      Cr  0.62708926  0.26362266  0.98790259     1.93700
Cr680      Cr  0.59192951  0.16355642  0.02544424     1.93200
Cr681      Cr  0.66162400  0.22578892  0.08815564     1.39100
O682        O  0.62688617  0.21681106  0.03468346    -1.24500
O683        O  0.31058872  0.20884961  0.00292775    -0.86800
O684        O  0.33902118  0.28254315  0.94314365    -0.83800
C685        C  0.35506194  0.32556801  0.93918370     0.96700
O686        O  0.39777463  0.33440412  0.95450424    -0.83900
O687        O  0.35576058  0.38468180  0.03607576    -0.86500
C688        C  0.33193239  0.38275073  0.07608342     1.01200
O689        O  0.32482118  0.34282755  0.09764552    -0.79300
O690        O  0.28176012  0.26901156  0.04615484    -0.79500
C691        C  0.27523533  0.23644531  0.01415687     1.01100
O692        O  0.41500151  0.19317502  0.03304738    -0.86800
O693        O  0.44354160  0.25306005  0.95936880    -0.83900
C694        C  0.47871420  0.26453725  0.98709087     0.96700
O695        O  0.47184872  0.29653187  0.01958948    -0.83900
O696        O  0.42817135  0.34762687  0.09327284    -0.86500
C697        C  0.42103179  0.32594619  0.13313381     1.01200
O698        O  0.39728476  0.28588242  0.13494178    -0.79300
O699        O  0.35580096  0.20420335  0.08447361    -0.79500
C700        C  0.39862270  0.18904660  0.07593392     1.01100
Cr701      Cr  0.37703701  0.23713358  0.98735042     1.93700
Cr702      Cr  0.41156403  0.33735084  0.02511110     1.93200
Cr703      Cr  0.34175430  0.27475145  0.08734193     1.39100
O704        O  0.37678717  0.28393030  0.03411845    -1.24500
O705        O  0.46027620  0.05855256  0.74795317    -0.86800
O706        O  0.53399423  0.08723110  0.80773163    -0.83800
C707        C  0.57692059  0.10350091  0.81174664     0.96700
O708        O  0.58559468  0.14625914  0.79643141    -0.83900
O709        O  0.63600808  0.10444380  0.71490849    -0.86500
C710        C  0.63416103  0.08046460  0.67497778     1.01200
O711        O  0.59428182  0.07312727  0.65342159    -0.79300
O712        O  0.52052177  0.02983727  0.70481690    -0.79500
C713        C  0.48790075  0.02322580  0.73672392     1.01100
O714        O  0.44438146  0.16291481  0.71791948    -0.86800
O715        O  0.50414189  0.19160047  0.79164594    -0.83900
C716        C  0.51539604  0.22684638  0.76393272     0.96700
O717        O  0.54731386  0.22013679  0.73134746    -0.83900
O718        O  0.59864995  0.17668336  0.65767943    -0.86500
C719        C  0.57709486  0.16934443  0.61779084     1.01200
O720        O  0.53716327  0.14540256  0.61595408    -0.79300
O721        O  0.45562102  0.10376392  0.66641964    -0.79500
C722        C  0.44037451  0.14656635  0.67500370     1.01100
Cr723      Cr  0.48842874  0.12506984  0.76358248     1.93700
Cr724      Cr  0.58842759  0.16004525  0.72582990     1.93200
Cr725      Cr  0.52616604  0.08987083  0.66361258     1.39100
O726        O  0.53519918  0.12498797  0.71682267    -1.24500
O727        O  0.50417617  0.80859173  0.70932697    -0.86800
O728        O  0.44418056  0.83689288  0.78289844    -0.83800
C729        C  0.44008799  0.85300708  0.82588863     0.96700
O730        O  0.45522103  0.89581481  0.83465953    -0.83900
O731        O  0.53689070  0.85408913  0.88513827    -0.86500
C732        C  0.57699799  0.83040901  0.88327655     1.01200
O733        O  0.59867304  0.82345079  0.84338345    -0.79300
O734        O  0.54749357  0.78004317  0.76954323    -0.79500
C735        C  0.51551087  0.77332762  0.73701047     1.01100
O736        O  0.53376548  0.91321874  0.69348044    -0.86800
O737        O  0.46007261  0.94151199  0.75329558    -0.83900
C738        C  0.48771623  0.97677096  0.76471555     0.96700
O739        O  0.52009541  0.97007941  0.79684519    -0.83900
O740        O  0.59376398  0.92677296  0.84814989    -0.86500
C741        C  0.63364922  0.91984012  0.82648666     1.01200
O742        O  0.63559777  0.89611723  0.78640396    -0.79300
O743        O  0.58545953  0.85429394  0.70468454    -0.79500
C744        C  0.57673603  0.89708863  0.68947489     1.01100
Cr745      Cr  0.48826467  0.87505584  0.73748044     1.93700
Cr746      Cr  0.52574005  0.90986020  0.83774182     1.93200
Cr747      Cr  0.58835207  0.84029301  0.77525875     1.39100
O748        O  0.53496372  0.87506976  0.78434652    -1.24500
O749        O  0.49883045  0.69156722  0.70934393    -0.86800
O750        O  0.55863677  0.66302301  0.78306503    -0.83800
C751        C  0.56263484  0.64681045  0.82603522     0.96700
O752        O  0.54744409  0.60400304  0.83468746    -0.83900
O753        O  0.46581480  0.64566474  0.88509524    -0.86500
C754        C  0.42582916  0.66953197  0.88322348     1.01200
O755        O  0.40427990  0.67676474  0.84331140    -0.79300
O756        O  0.45559196  0.72015091  0.76957967    -0.79500
C757        C  0.48755643  0.72683980  0.73703548     1.01100
O758        O  0.46895649  0.58710029  0.69334326    -0.86800
O759        O  0.54273285  0.55854595  0.75314225    -0.83900
C760        C  0.51510177  0.52323895  0.76440627     0.96700
O761        O  0.48257851  0.52989235  0.79641273    -0.83900
O762        O  0.40880930  0.57324579  0.84774345    -0.86500
C763        C  0.36892164  0.58046599  0.82616023     1.01200
O764        O  0.36704129  0.60436626  0.78618547    -0.79300
O765        O  0.41733121  0.64611803  0.70456628    -0.79500
C766        C  0.42601530  0.60334849  0.68926034     1.01100
Cr767      Cr  0.51456316  0.62505205  0.73745390     1.93700
Cr768      Cr  0.47690276  0.59003737  0.83752071     1.93200
Cr769      Cr  0.41453923  0.66001467  0.77517397     1.39100
O770        O  0.46781548  0.62502986  0.78423506    -1.24500
O771        O  0.49879153  0.30857336  0.79166461    -0.86800
O772        O  0.55869245  0.33686697  0.71801694    -0.83800
C773        C  0.56270147  0.35294418  0.67500705     0.96700
O774        O  0.54754509  0.39575273  0.66623833    -0.83900
O775        O  0.46579393  0.35408249  0.61586937    -0.86500
C776        C  0.42576351  0.33027763  0.61780716     1.01200
O777        O  0.40415129  0.32332840  0.65772743    -0.79300
O778        O  0.45544179  0.28001156  0.73147709    -0.79500
C779        C  0.48744709  0.27331388  0.76398261     1.01100
O780        O  0.46917530  0.41315285  0.80754636    -0.86800
O781        O  0.54283711  0.44147751  0.74769198    -0.83900
C782        C  0.51517624  0.47675792  0.73637163     0.96700
O783        O  0.48272991  0.47007409  0.70429202    -0.83900
O784        O  0.40895253  0.42676184  0.65300583    -0.86500
C785        C  0.36907031  0.41973398  0.67464583     1.01200
O786        O  0.36717149  0.39597687  0.71470879    -0.79300
O787        O  0.41749783  0.35420846  0.79637947    -0.79500
C788        C  0.42621450  0.39700708  0.81156994     1.01100
Cr789      Cr  0.51464974  0.37502008  0.76349713     1.93700
Cr790      Cr  0.47701180  0.40984681  0.66331165     1.93200
Cr791      Cr  0.41452430  0.34021150  0.72581877     1.39100
O792        O  0.46788185  0.37502602  0.71668733    -1.24500
O793        O  0.28392603  0.55727323  0.83743016    -0.86800
O794        O  0.21034717  0.49735608  0.80890604    -0.83800
C795        C  0.23801179  0.48606832  0.77362124     0.96700
O796        O  0.27053514  0.45407415  0.78029994    -0.83900
O797        O  0.34432358  0.40288608  0.82361594    -0.86500
C798        C  0.38419042  0.42451495  0.83074473     1.01200
O799        O  0.38605631  0.46453515  0.85459441    -0.79300
O800        O  0.33556061  0.54612315  0.89642490    -0.79500
C801        C  0.32687264  0.56132388  0.85363278     1.01100
O802        O  0.25418981  0.54125560  0.94193587    -0.86800
O803        O  0.19446470  0.46744470  0.91344354    -0.83900
C804        C  0.19046658  0.42446985  0.89722968     0.96700
O805        O  0.20570480  0.41581040  0.85443738    -0.83900
O806        O  0.28747455  0.36556949  0.89613333    -0.86500
C807        C  0.32748968  0.36753657  0.91995420     1.01200
O808        O  0.34900739  0.40747669  0.92707386    -0.79300
O809        O  0.29760071  0.48111837  0.97049389    -0.79500
C810        C  0.26556085  0.51359937  0.97720176     1.01100
Cr811      Cr  0.23845836  0.51310506  0.87542955     1.93700
Cr812      Cr  0.27625779  0.41305358  0.84046011     1.93200
Cr813      Cr  0.33859544  0.47555438  0.91031026     1.39100
O814        O  0.28529018  0.46638612  0.87539771    -1.24500
O815        O  0.28408710  0.44289111  0.66335865    -0.86800
O816        O  0.21031838  0.50260361  0.69183776    -0.83800
C817        C  0.23796039  0.51401215  0.72710495     0.96700
O818        O  0.27041768  0.54606606  0.72037278    -0.83900
O819        O  0.34405610  0.59755111  0.67691636    -0.86500
C820        C  0.38397533  0.57594552  0.66987747     1.01200
O821        O  0.38589431  0.53591848  0.64604381    -0.79300
O822        O  0.33571708  0.45413732  0.60436634    -0.79500
C823        C  0.32704009  0.43892547  0.64716537     1.01100
O824        O  0.25423873  0.45866168  0.55885302    -0.86800
O825        O  0.19425150  0.53222248  0.58729143    -0.83900
C826        C  0.19010343  0.57519101  0.60345414     0.96700
O827        O  0.20535717  0.58398047  0.64622422    -0.83900
O828        O  0.28673992  0.63445559  0.60441046    -0.86500
C829        C  0.32673206  0.63268531  0.58058218     1.01200
O830        O  0.34850386  0.59285643  0.57351311    -0.79300
O831        O  0.29739100  0.51892114  0.53019354    -0.79500
C832        C  0.26544465  0.48633787  0.52355124     1.10700
Cr833      Cr  0.23844942  0.48682990  0.62533285     1.93700
Cr834      Cr  0.27591954  0.58704890  0.66015687     1.93200
Cr835      Cr  0.33842275  0.52471124  0.59035431     1.39100
O836        O  0.28511327  0.53371120  0.62528078    -1.24500
O837        O  0.21908221  0.44266175  0.33725194    -0.86800
O838        O  0.29253047  0.50284139  0.30890170    -0.83800
C839        C  0.26482385  0.51402340  0.27362914     0.96700
O840        O  0.23214546  0.54585489  0.28030380    -0.83900
O841        O  0.15825297  0.59684372  0.32364379    -0.86500
C842        C  0.11844885  0.57510918  0.33077188     1.01200
O843        O  0.11668832  0.53509095  0.35460979    -0.79300
O844        O  0.16738817  0.45360580  0.39623409    -0.79500
C845        C  0.17613716  0.43847929  0.35341320     1.01100
O846        O  0.24877416  0.45863031  0.44179521    -0.86800
O847        O  0.30829505  0.53260685  0.41337030    -0.83900
C848        C  0.31222085  0.57557475  0.39714616     0.96700
O849        O  0.29690247  0.58425129  0.35438596    -0.83900
O850        O  0.21507423  0.63427475  0.39613012    -0.86500
C851        C  0.17507878  0.63223623  0.41995843     1.01200
O852        O  0.15365195  0.59224632  0.42712211    -0.79300
O853        O  0.20527357  0.51865162  0.47044396    -0.79500
C854        C  0.23740714  0.48625120  0.47709412     1.01100
Cr855      Cr  0.26442591  0.48689498  0.37533668     1.93700
Cr856      Cr  0.22634628  0.58684601  0.34044904     1.93200
Cr857      Cr  0.16421195  0.52416656  0.41027997     1.39100
O858        O  0.21747332  0.53349113  0.37536323    -1.24500
O859        O  0.21886407  0.55711044  0.16347155    -0.86800
O860        O  0.29265002  0.49742207  0.19195962    -0.83800
C861        C  0.26496783  0.48604230  0.22718525     0.96700
O862        O  0.23254569  0.45396140  0.22046744    -0.83900
O863        O  0.15901031  0.40242877  0.17704648    -0.86500
C864        C  0.11907097  0.42392976  0.16986085     1.01200
O865        O  0.11711519  0.46396273  0.14605481    -0.79300
O866        O  0.16728278  0.54577833  0.10444970    -0.79500
C867        C  0.17591036  0.56102360  0.14725644     1.01100
O868        O  0.24876375  0.54126633  0.05895418    -0.86800
O869        O  0.30874046  0.46774913  0.08746729    -0.83900
C870        C  0.31279932  0.42477603  0.10362881     0.96700
O871        O  0.29763414  0.41605313  0.14643001    -0.83900
O872        O  0.21622967  0.36540219  0.10462687    -0.86500
C873        C  0.17624831  0.36717786  0.08075049     1.01200
O874        O  0.15455296  0.40703022  0.07359225    -0.79300
O875        O  0.20567232  0.48093625  0.03033352    -0.79500
C876        C  0.23757846  0.51354104  0.02367327     1.01100
Cr877      Cr  0.26453488  0.51315655  0.12546530     1.93700
Cr878      Cr  0.22709515  0.41292101  0.16032318     1.93200
Cr879      Cr  0.16461250  0.47518581  0.09043728     1.39100
O880        O  0.21789544  0.46623518  0.12541136    -1.24500
O881        O  0.99912835  0.19078618  0.20897821    -0.86800
O882        O  0.05885077  0.16237750  0.28269501    -0.83800
C883        C  0.06277133  0.14633089  0.32571974     0.96700
O884        O  0.04748343  0.10358940  0.33452129    -0.83900
O885        O  0.96592390  0.14567178  0.38477964    -0.86500
C886        C  0.92589023  0.16945092  0.38282311     1.01200
O887        O  0.90434685  0.17654526  0.34288355    -0.79300
O888        O  0.95578752  0.21959407  0.26905501    -0.79500
C889        C  0.98784693  0.22614469  0.23657457     1.01100
O890        O  0.96911305  0.08622440  0.19328599    -0.86800
O891        O  0.04264204  0.05778832  0.25328672    -0.83900
C892        C  0.01487371  0.02264549  0.26473020     0.96700
O893        O  0.98241011  0.02951609  0.29672674    -0.83900
O894        O  0.90879904  0.07315657  0.34785065    -0.86500
C895        C  0.86892823  0.08021213  0.32618675     1.01200
O896        O  0.86709139  0.10392485  0.28607999    -0.79300
O897        O  0.91764254  0.14537731  0.20430267    -0.79500
C898        C  0.92619761  0.10249921  0.18924856     1.01100
Cr899      Cr  0.01470224  0.12430153  0.23727955     1.93700
Cr900      Cr  0.97691536  0.08980763  0.33751087     1.93200
Cr901      Cr  0.91466905  0.15952816  0.27483024     1.39100
O902        O  0.96791189  0.12455259  0.28405854    -1.24500
O903        O  0.99823204  0.80785688  0.29201028    -0.86800
O904        O  0.05805001  0.83636168  0.21823474    -0.83800
C905        C  0.06219054  0.85273040  0.17533745     0.96700
O906        O  0.04690003  0.89551055  0.16673346    -0.83900
O907        O  0.96535561  0.85377708  0.11641260    -0.86500
C908        C  0.92534628  0.82997991  0.11824394     1.01200
O909        O  0.90366954  0.82284405  0.15810262    -0.79300
O910        O  0.95482546  0.77934495  0.23185412    -0.79500
C911        C  0.98685477  0.77260570  0.26433596     1.01100
O912        O  0.96861257  0.91237429  0.30802322    -0.86800
O913        O  0.04224941  0.94081103  0.24816746    -0.83900
C914        C  0.01464324  0.97613497  0.23686828     0.96700
O915        O  0.98201134  0.96950323  0.20497504    -0.83900
O916        O  0.90824063  0.92624855  0.15354502    -0.86500
C917        C  0.86833529  0.91915509  0.17512170     1.01200
O918        O  0.86644259  0.89532519  0.21514719    -0.79300
O919        O  0.91683061  0.85350998  0.29679566    -0.79500
C920        C  0.92561788  0.89629336  0.31198896     1.01100
Cr921      Cr  0.01405327  0.87433963  0.26388976     1.93700
Cr922      Cr  0.97634569  0.90942416  0.16388570     1.93200
Cr923      Cr  0.91389729  0.83958197  0.22622694     1.39100
O924        O  0.96724642  0.87444135  0.21715398    -1.24500
O925        O  0.00352593  0.69075839  0.29179484    -0.86800
O926        O  0.94390164  0.66237529  0.21801765    -0.83800
C927        C  0.94001934  0.64634465  0.17498673     0.96700
O928        O  0.95530289  0.60360173  0.16615273    -0.83900
O929        O  0.03692935  0.64564391  0.11601255    -0.86500
C930        C  0.07693352  0.66946908  0.11802292     1.01200
O931        O  0.09846204  0.67651189  0.15797786    -0.79300
O932        O  0.04690402  0.71957021  0.23175524    -0.79500
C933        C  0.01484190  0.72612669  0.26423782     1.01100
O934        O  0.03346772  0.58620701  0.30749018    -0.86800
O935        O  0.95999962  0.55779306  0.24739874    -0.83900
C936        C  0.98776611  0.52261585  0.23603236     0.96700
O937        O  0.02027605  0.52945091  0.20406232    -0.83900
O938        O  0.09398022  0.57308908  0.15299129    -0.86500
C939        C  0.13381569  0.58016345  0.17470786     1.01200
O940        O  0.13559534  0.60387031  0.21482469    -0.79300
O941        O  0.08494961  0.64535883  0.29653760    -0.79500
C942        C  0.07635875  0.60250397  0.31162319     1.01100
Cr943      Cr  0.98796326  0.62428690  0.26344993     1.93700
Cr944      Cr  0.02586045  0.58976432  0.16325956     1.93200
Cr945      Cr  0.08802821  0.65948959  0.22601421     1.39100
O946        O  0.03480428  0.62451689  0.21672142    -1.24500
O947        O  0.96032467  0.44078908  0.25269989    -0.86800
O948        O  0.03406498  0.41240248  0.19290352    -0.83800
C949        C  0.07706894  0.39632141  0.18894457     0.96700
O950        O  0.08584918  0.35354337  0.20415600    -0.83900
O951        O  0.13611456  0.39538472  0.28584475    -0.86500
C952        C  0.13415710  0.41924141  0.32585262     1.01200
O953        O  0.09423606  0.42633232  0.34739463    -0.79300
O954        O  0.02047028  0.46951508  0.29596457    -0.79500
C955        C  0.98792380  0.47612208  0.26397710     1.01100
O956        O  0.94457654  0.33629946  0.28262890    -0.86800
O957        O  0.00448063  0.30787170  0.20885770    -0.83900
C958        C  0.01584773  0.27261274  0.23651918     0.96700
O959        O  0.04784372  0.27934961  0.26904150    -0.83900
O960        O  0.09900079  0.32285253  0.34288699    -0.86500
C961        C  0.07734376  0.32998376  0.38276428     1.01200
O962        O  0.03731296  0.35378190  0.38458875    -0.79300
O963        O  0.95564355  0.39539071  0.33422445    -0.79500
C964        C  0.94040087  0.35260148  0.32555971     1.01100
Cr965      Cr  0.98858994  0.37433240  0.23700245     1.93700
Cr966      Cr  0.08873726  0.33960924  0.27473491     1.93200
Cr967      Cr  0.02618675  0.40941505  0.33706559     1.39100
O968        O  0.03535268  0.37444156  0.28378759    -1.24500
O969        O  0.83815768  0.28201613  0.55742502    -0.86800
O970        O  0.80981656  0.20829758  0.49753402    -0.83800
C971        C  0.77453414  0.23593122  0.48616537     0.96700
O972        O  0.78120626  0.26840623  0.45410269    -0.83900
O973        O  0.82453943  0.34224502  0.40286056    -0.86500
C974        C  0.83150339  0.38210841  0.42461455     1.01200
O975        O  0.85523991  0.38395761  0.46467719    -0.79300
O976        O  0.89704878  0.33376407  0.54627233    -0.79500
C977        C  0.85430795  0.32499101  0.56155832     1.01100
O978        O  0.94271969  0.25235851  0.54149153    -0.86800
O979        O  0.91435697  0.19246821  0.46785044    -0.83900
C980        C  0.89827085  0.18848392  0.42484344     0.96700
O981        O  0.85546134  0.20358088  0.41609953    -0.83900
O982        O  0.89714350  0.28524009  0.36573630    -0.86500
C983        C  0.92092732  0.32528485  0.36761740     1.01200
O984        O  0.92782963  0.34700280  0.40751485    -0.79300
O985        O  0.97124030  0.29573332  0.48131427    -0.79500
C986        C  0.97797451  0.26372270  0.51382618     1.01100
Cr987      Cr  0.87625202  0.23650814  0.51334554     1.93700
Cr988      Cr  0.84140524  0.27412620  0.41315466     1.93200
Cr989      Cr  0.91101436  0.33665020  0.47567370     1.39100
O990        O  0.87621548  0.28327429  0.46654596    -1.24500
O991        O  0.58833908  0.19235843  0.53272910    -0.86800
O992        O  0.55979060  0.25218742  0.45906521    -0.83800
C993        C  0.52453441  0.26346897  0.48675500     0.96700
O994        O  0.53122538  0.29546461  0.51929738    -0.83900
O995        O  0.57454755  0.34682700  0.59305128    -0.86500
C996        C  0.58180485  0.32532347  0.63297746     1.01200
O997        O  0.60569494  0.28532494  0.63488171    -0.79300
O998        O  0.64733929  0.20359037  0.58434231    -0.79500
C999        C  0.60455252  0.18839293  0.57569164     1.01100
O1000       O  0.69278628  0.20829910  0.50286082    -0.86800
O1001       O  0.66423582  0.28201586  0.44310154    -0.83900
C1002       C  0.64803606  0.32498707  0.43916164     0.96700
O1003       O  0.60526262  0.33365170  0.45438773    -0.83900
O1004       O  0.64696366  0.38410888  0.53612367    -0.86500
C1005       C  0.67086069  0.38217641  0.57611366     1.01200
O1006       O  0.67812098  0.34223686  0.59759326    -0.79300
O1007       O  0.72139302  0.26848869  0.54617415    -0.79500
C1008       C  0.72806115  0.23596229  0.51415695     1.01100
Cr1009     Cr  0.62628904  0.23645488  0.48718166     1.93700
Cr1010     Cr  0.59134093  0.33654832  0.52495788     1.93200
Cr1011     Cr  0.66129452  0.27415499  0.58728360     1.39100
O1012       O  0.62630941  0.28324530  0.53400040    -1.24500
O1013       O  0.41444633  0.30670908  0.53284135    -0.86800
O1014       O  0.44277869  0.24682950  0.45910855    -0.83800
C1015       C  0.47806662  0.23547296  0.48673819     0.96700
O1016       O  0.47140745  0.20341079  0.51921537    -0.83900
O1017       O  0.42809793  0.15214521  0.59304639    -0.86500
C1018       C  0.42112819  0.17388667  0.63291360     1.01200
O1019       O  0.39738680  0.21394688  0.63477302    -0.79300
O1020       O  0.35556503  0.29554482  0.58459477    -0.79500
C1021       C  0.39830663  0.31082772  0.57582082     1.01100
O1022       O  0.30988606  0.29076666  0.50319743    -0.86800
O1023       O  0.33824395  0.21711765  0.44329564    -0.83900
C1024       C  0.35434477  0.17411422  0.43929519     0.96700
O1025       O  0.39715720  0.16538175  0.45439125    -0.83900
O1026       O  0.35549812  0.11501402  0.53604508    -0.86500
C1027       C  0.33171801  0.11688632  0.57608967     1.01200
O1028       O  0.32480578  0.15677976  0.59781319    -0.79300
O1029       O  0.28137619  0.23057931  0.54656382    -0.79500
C1030       C  0.27463795  0.26309050  0.51455346     1.01100
Cr1031     Cr  0.37634895  0.26262758  0.48733212     1.93700
Cr1032     Cr  0.41122257  0.16244384  0.52493451     1.93200
Cr1033     Cr  0.34160725  0.22494329  0.58747300     1.39100
O1034       O  0.37640050  0.21582574  0.53409276    -1.24500
O1035       O  0.16415264  0.21708404  0.55763802    -0.86800
O1036       O  0.19287520  0.29075356  0.49788779    -0.83800
C1037       C  0.22813396  0.26305834  0.48660216     0.96700
O1038       O  0.22144337  0.23053053  0.45459709    -0.83900
O1039       O  0.17808768  0.15685640  0.40323413    -0.86500
C1040       C  0.17079669  0.11694285  0.42473958     1.01200
O1041       O  0.14688043  0.11504265  0.46470438    -0.79300
O1042       O  0.10513950  0.16550753  0.54634101    -0.79500
C1043       C  0.14790672  0.17413075  0.56161520     1.01100
O1044       O  0.05973961  0.24710038  0.54151226    -0.86800
O1045       O  0.08847114  0.30683437  0.46782843    -0.83900
C1046       C  0.10473597  0.31080940  0.42488317     0.96700
O1047       O  0.14750923  0.29554401  0.41628060    -0.83900
O1048       O  0.10579458  0.21388307  0.36583295    -0.86500
C1049       C  0.08187758  0.17391623  0.36773370     1.01200
O1050       O  0.07459097  0.15240867  0.40764744    -0.79300
O1051       O  0.03120272  0.20377575  0.48129936    -0.79500
C1052       C  0.02449091  0.23578897  0.51381446     1.01100
Cr1053     Cr  0.12630975  0.26270875  0.51348326     1.93700
Cr1054     Cr  0.16136376  0.22495219  0.41345523     1.93200
Cr1055     Cr  0.09129849  0.16265297  0.47574731     1.39100
O1056       O  0.12632413  0.21591569  0.46670680    -1.24500
loop_ 
_geom_bond_atom_site_label_1 
_geom_bond_atom_site_label_2 
_geom_bond_distance 
_geom_bond_site_symmetry_2 
_ccdc_geom_bond_type 
O1          Cr19   2.020       .  S
O1            C9   1.264       .  A
O2          Cr19   2.021       .  S
O2            C3   1.260       .  A
C3            O4   1.264       .  A
C3          C292   1.470       .  S
O4          Cr20   1.968       .  S
O5          Cr20   2.023       .  S
O5            C6   1.274       .  A
C6            O7   1.255       .  A
C6          C276   1.470       .  S
O7          Cr21   1.938       .  S
O8          Cr21   1.996       .  S
O8            C9   1.260       .  A
C9           C53   1.483   1_556  S
O10         Cr19   2.021       .  S
O10          C18   1.260       .  A
O11         Cr19   2.020       .  S
O11          C12   1.264       .  A
C12          O13   1.261       .  A
C12          C34   1.484       .  S
O13         Cr20   1.997       .  S
O14         Cr20   1.938       .  S
O14          C15   1.256       .  A
C15          O16   1.274       .  A
C15         C471   1.470       .  S
O16         Cr21   2.023       .  S
O17         Cr21   1.968       .  S
O17          C18   1.264       .  A
C18         C490   1.470       .  S
Cr19         O22   1.808       .  S
Cr20         O22   1.760       .  S
Cr21         O22   1.760       .  S
O23         Cr41   2.020       .  S
O23          C31   1.264       .  A
O24         Cr41   2.020       .  S
O24          C25   1.260       .  A
C25          O26   1.264       .  A
C25        C1005   1.470       .  S
O26         Cr42   1.968       .  S
O27         Cr42   2.024       .  S
O27          C28   1.274       .  A
C28          O29   1.255       .  A
C28         C977   1.471       .  S
O29         Cr43   1.938       .  S
O30         Cr43   1.996       .  S
O30          C31   1.260       .  A
C31          C78   1.482       .  S
O32         Cr41   2.020       .  S
O32          C40   1.260       .  A
O33         Cr41   2.020       .  S
O33          C34   1.264       .  A
C34          O35   1.261       .  A
O35         Cr42   1.997       .  S
O36         Cr42   1.938       .  S
O36          C37   1.255       .  A
C37          O38   1.274       .  A
C37         C493   1.470       .  S
O38         Cr43   2.023       .  S
O39         Cr43   1.968       .  S
O39          C40   1.264       .  A
C40         C468   1.470       .  S
Cr41         O44   1.809       .  S
Cr42         O44   1.760       .  S
Cr43         O44   1.760       .  S
O45         Cr63   2.020       .  S
O45          C53   1.264       .  A
O46         Cr63   2.021       .  S
O46          C47   1.260       .  A
C47          O48   1.264       .  A
C47         C279   1.470       .  S
O48         Cr64   1.968       .  S
O49         Cr64   2.023       .  S
O49          C50   1.274       .  A
C50          O51   1.255       .  A
C50         C295   1.470       .  S
O51         Cr65   1.939       .  S
O52         Cr65   1.996       .  S
O52          C53   1.260       .  A
O54         Cr63   2.021       .  S
O54          C62   1.260       .  A
O55         Cr63   2.020       .  S
O55          C56   1.264       .  A
C56          O57   1.260       .  A
C56          C75   1.482       .  S
O57         Cr64   1.995       .  S
O58         Cr64   1.937       .  S
O58          C59   1.255       .  A
C59          O60   1.274       .  A
C59         C562   1.469       .  S
O60         Cr65   2.022       .  S
O61         Cr65   1.968       .  S
O61          C62   1.264       .  A
C62         C587   1.470       .  S
Cr63         O66   1.809       .  S
Cr64         O66   1.760       .  S
Cr65         O66   1.760       .  S
O67         Cr85   2.020       .  S
O67          C75   1.264       .  A
O68         Cr85   2.020       .  S
O68          C69   1.260       .  A
C69          O70   1.264       .  A
C69         C565   1.469       .  S
O70         Cr86   1.968       .  S
O71         Cr86   2.022       .  S
O71          C72   1.274       .  A
C72          O73   1.255       .  A
C72         C584   1.469       .  S
O73         Cr87   1.938       .  S
O74         Cr87   1.996       .  S
O74          C75   1.261       .  A
O76         Cr85   2.019       .  S
O76          C84   1.260       .  A
O77         Cr85   2.020       .  S
O77          C78   1.264       .  A
C78          O79   1.260       .  A
O79         Cr86   1.996       .  S
O80         Cr86   1.938       .  S
O80          C81   1.255       .  A
C81          O82   1.274       .  A
C81        C1002   1.469       .  S
O82         Cr87   2.023       .  S
O83         Cr87   1.967       .  S
O83          C84   1.264       .  A
C84         C974   1.469       .  S
Cr85         O88   1.808       .  S
Cr86         O88   1.760       .  S
Cr87         O88   1.760       .  S
O89        Cr107   2.021       .  S
O89          C97   1.264       .  A
O90        Cr107   2.020       .  S
O90          C91   1.260       .  A
C91          O92   1.264       .  A
C91         C851   1.470       .  S
O92        Cr108   1.968       .  S
O93        Cr108   2.023       .  S
O93          C94   1.274       .  A
C94          O95   1.255       .  A
C94         C826   1.470       .  S
O95        Cr109   1.938       .  S
O96        Cr109   1.997       .  S
O96          C97   1.261       .  A
C97         C163   1.484       .  S
O98        Cr107   2.021       .  S
O98         C106   1.260       .  A
O99        Cr107   2.020       .  S
O99         C100   1.264       .  A
C100        O101   1.261       .  A
C100        C119   1.483   1_455  S
O101       Cr108   1.996       .  S
O102       Cr108   1.938       .  S
O102        C103   1.256       .  A
C103        O104   1.274       .  A
C103        C474   1.471       .  S
O104       Cr109   2.024       .  S
O105       Cr109   1.968       .  S
O105        C106   1.264       .  A
C106        C455   1.470       .  S
Cr107       O110   1.809       .  S
Cr108       O110   1.760       .  S
Cr109       O110   1.760       .  S
O111       Cr129   2.020       .  S
O111        C119   1.264       .  A
O112       Cr129   2.020       .  S
O112        C113   1.260       .  A
C113        O114   1.264       .  A
C113        C477   1.470       .  S
O114       Cr130   1.968       .  S
O115       Cr130   2.023       .  S
O115        C116   1.274       .  A
C116        O117   1.255       .  A
C116        C452   1.470       .  S
O117       Cr131   1.938       .  S
O118       Cr131   1.996       .  S
O118        C119   1.260       .  A
O120       Cr129   2.020       .  S
O120        C128   1.260       .  A
O121       Cr129   2.020       .  S
O121        C122   1.264       .  A
C122        O123   1.260       .  A
C122        C144   1.483       .  S
O123       Cr130   1.996       .  S
O124       Cr130   1.938       .  S
O124        C125   1.256       .  A
C125        O126   1.274       .  A
C125        C207   1.469       .  S
O126       Cr131   2.023       .  S
O127       Cr131   1.968       .  S
O127        C128   1.264       .  A
C128        C235   1.470       .  S
Cr129       O132   1.808       .  S
Cr130       O132   1.760       .  S
Cr131       O132   1.760       .  S
O133       Cr151   2.020       .  S
O133        C141   1.264       .  A
O134       Cr151   2.021       .  S
O134        C135   1.260       .  A
C135        O136   1.264       .  A
C135        C556   1.470       .  S
O136       Cr152   1.968       .  S
O137       Cr152   2.023       .  S
O137        C138   1.274       .  A
C138        O139   1.256       .  A
C138        C540   1.470       .  S
O139       Cr153   1.938       .  S
O140       Cr153   1.996       .  S
O140        C141   1.260       .  A
C141        C166   1.483       .  S
O142       Cr151   2.020       .  S
O142        C150   1.260       .  A
O143       Cr151   2.021       .  S
O143        C144   1.264       .  A
C144        O145   1.260       .  A
O145       Cr152   1.996       .  S
O146       Cr152   1.939       .  S
O146        C147   1.255       .  A
C147        O148   1.274       .  A
C147        C232   1.471       .  S
O148       Cr153   2.024       .  S
O149       Cr153   1.968       .  S
O149        C150   1.264       .  A
C150        C204   1.470       .  S
Cr151       O154   1.809       .  S
Cr152       O154   1.760       .  S
Cr153       O154   1.760       .  S
O155       Cr173   2.021       .  S
O155        C163   1.264       .  A
O156       Cr173   2.020       .  S
O156        C157   1.260       .  A
C157        O158   1.264       .  A
C157        C829   1.469       .  S
O158       Cr174   1.967       .  S
O159       Cr174   2.023       .  S
O159        C160   1.274       .  A
C160        O161   1.255       .  A
C160        C848   1.469       .  S
O161       Cr175   1.938       .  S
O162       Cr175   1.997       .  S
O162        C163   1.261       .  A
O164       Cr173   2.020       .  S
O164        C172   1.260       .  A
O165       Cr173   2.021       .  S
O165        C166   1.264       .  A
C166        O167   1.261       .  A
O167       Cr174   1.996       .  S
O168       Cr174   1.937       .  S
O168        C169   1.255       .  A
C169        O170   1.274       .  A
C169        C559   1.470       .  S
O170       Cr175   2.023       .  S
O171       Cr175   1.968       .  S
O171        C172   1.264       .  A
C172        C543   1.470       .  S
Cr173       O176   1.808       .  S
Cr174       O176   1.760       .  S
Cr175       O176   1.760       .  S
O177       Cr195   2.020   1_545  S
O177        C185   1.260       .  A
O178       Cr195   2.020       .  S
O178        C179   1.264       .  A
C179        O180   1.261   1_565  A
C179        C260   1.482   1_556  S
O180       Cr196   1.996       .  S
O181       Cr196   1.938       .  S
O181        C182   1.256       .  A
C182        O183   1.274       .  A
C182        C663   1.470       .  S
O183       Cr197   2.023       .  S
O184       Cr197   1.968       .  S
O184        C185   1.264       .  A
C185        C653   1.470       .  S
O186       Cr195   2.020   1_545  S
O186        C194   1.264       .  A
O187       Cr195   2.019       .  S
O187        C188   1.260       .  A
C188        O189   1.264       .  A
C188        C741   1.469       .  S
O189       Cr196   1.968   1_565  S
O190       Cr196   2.022       .  S
O190        C191   1.274       .  A
C191        O192   1.256       .  A
C191        C707   1.469       .  S
O192       Cr197   1.939       .  S
O193       Cr197   1.996       .  S
O193        C194   1.260       .  A
C194        C216   1.483   1_545  S
Cr195       O198   1.808   1_565  S
Cr196       O198   1.759       .  S
Cr197       O198   1.760       .  S
O199       Cr217   2.020   1_565  S
O199        C207   1.260       .  A
O200       Cr217   2.020       .  S
O200        C201   1.264       .  A
C201        O202   1.261   1_545  A
C201        C238   1.483       .  S
O202       Cr218   1.996       .  S
O203       Cr218   1.937       .  S
O203        C204   1.255       .  A
C204        O205   1.274       .  A
O205       Cr219   2.023       .  S
O206       Cr219   1.967       .  S
O206        C207   1.264       .  A
O208       Cr217   2.020   1_565  S
O208        C216   1.264       .  A
O209       Cr217   2.020       .  S
O209        C210   1.260       .  A
C210        O211   1.264       .  A
C210        C710   1.469       .  S
O211       Cr218   1.967   1_545  S
O212       Cr218   2.024       .  S
O212        C213   1.274       .  A
C213        O214   1.255       .  A
C213        C744   1.470       .  S
O214       Cr219   1.937       .  S
O215       Cr219   1.996       .  S
O215        C216   1.260       .  A
Cr217       O220   1.809   1_545  S
Cr218       O220   1.760       .  S
Cr219       O220   1.760       .  S
O221       Cr239   2.021       .  S
O221        C229   1.260       .  A
O222       Cr239   2.020   1_565  S
O222        C223   1.264       .  A
C223        O224   1.260       .  A
C223        C245   1.483   1_565  S
O224       Cr240   1.996       .  S
O225       Cr240   1.938       .  S
O225        C226   1.255       .  A
C226        O227   1.274       .  A
C226        C920   1.469       .  S
O227       Cr241   2.022       .  S
O228       Cr241   1.968   1_545  S
O228        C229   1.264       .  A
C229        C895   1.471       .  S
O230       Cr239   2.020       .  S
O230        C238   1.264       .  A
O231       Cr239   2.021   1_565  S
O231        C232   1.260       .  A
C232        O233   1.264       .  A
O233       Cr240   1.968       .  S
O234       Cr240   2.023       .  S
O234        C235   1.274       .  A
C235        O236   1.256       .  A
O236       Cr241   1.938       .  S
O237       Cr241   1.996       .  S
O237        C238   1.260   1_565  A
Cr239       O242   1.808   1_545  S
Cr240       O242   1.760       .  S
Cr241       O242   1.760       .  S
O243       Cr261   2.021       .  S
O243        C251   1.260       .  A
O244       Cr261   2.020   1_545  S
O244        C245   1.264       .  A
C245        O246   1.260       .  A
O246       Cr262   1.996       .  S
O247       Cr262   1.938       .  S
O247        C248   1.255       .  A
C248        O249   1.274       .  A
C248        C898   1.470       .  S
O249       Cr263   2.023       .  S
O250       Cr263   1.968   1_565  S
O250        C251   1.264       .  A
C251        C917   1.471       .  S
O252       Cr261   2.020       .  S
O252        C260   1.264       .  A
O253       Cr261   2.020   1_545  S
O253        C254   1.260       .  A
C254        O255   1.264       .  A
C254        C666   1.470       .  S
O255       Cr262   1.968       .  S
O256       Cr262   2.023       .  S
O256        C257   1.274       .  A
C257        O258   1.255       .  A
C257        C656   1.470       .  S
O258       Cr263   1.938       .  S
O259       Cr263   1.996       .  S
O259        C260   1.260   1_545  A
Cr261       O264   1.808   1_565  S
Cr262       O264   1.760       .  S
Cr263       O264   1.760       .  S
O265       Cr283   2.019   1_554  S
O265        C273   1.260       .  A
O266       Cr283   2.021       .  S
O266        C267   1.264       .  A
C267        O268   1.260   1_556  A
C267        C333   1.484   1_655  S
O268       Cr284   1.997       .  S
O269       Cr284   1.937       .  S
O269        C270   1.255       .  A
C270        O271   1.274       .  A
C270        C927   1.469       .  S
O271       Cr285   2.023       .  S
O272       Cr285   1.967       .  S
O272        C273   1.264       .  A
C273        C908   1.469       .  S
O274       Cr283   2.020   1_554  S
O274        C282   1.264       .  A
O275       Cr283   2.020       .  S
O275        C276   1.260       .  A
C276        O277   1.264       .  A
O277       Cr284   1.968   1_556  S
O278       Cr284   2.024       .  S
O278        C279   1.274       .  A
C279        O280   1.255       .  A
O280       Cr285   1.937       .  S
O281       Cr285   1.996       .  S
O281        C282   1.260       .  A
C282        C289   1.482   1_554  S
Cr283       O286   1.808   1_556  S
Cr284       O286   1.760       .  S
Cr285       O286   1.760       .  S
O287       Cr305   2.021       .  S
O287        C295   1.260       .  A
O288       Cr305   2.020   1_556  S
O288        C289   1.264       .  A
C289        O290   1.260       .  A
O290       Cr306   1.995       .  S
O291       Cr306   1.939       .  S
O291        C292   1.256       .  A
C292        O293   1.274       .  A
O293       Cr307   2.023       .  S
O294       Cr307   1.968   1_554  S
O294        C295   1.264       .  A
O296       Cr305   2.020       .  S
O296        C304   1.264       .  A
O297       Cr305   2.021   1_556  S
O297        C298   1.260       .  A
C298        O299   1.264       .  A
C298        C732   1.470       .  S
O299       Cr306   1.968       .  S
O300       Cr306   2.023       .  S
O300        C301   1.274       .  A
C301        O302   1.256       .  A
C301        C751   1.470       .  S
O302       Cr307   1.939       .  S
O303       Cr307   1.995       .  S
O303        C304   1.260   1_556  A
C304        C326   1.482       .  S
Cr305       O308   1.809   1_554  S
Cr306       O308   1.760       .  S
Cr307       O308   1.760       .  S
O309       Cr327   2.020       .  S
O309        C317   1.260       .  A
O310       Cr327   2.021   1_556  S
O310        C311   1.264       .  A
C311        O312   1.260       .  A
C311        C348   1.484   1_556  S
O312       Cr328   1.997       .  S
O313       Cr328   1.936       .  S
O313        C314   1.255       .  A
C314        O315   1.274       .  A
C314        C377   1.469       .  S
O315       Cr329   2.023       .  S
O316       Cr329   1.967   1_554  S
O316        C317   1.264       .  A
C317        C358   1.469       .  S
O318       Cr327   2.020       .  S
O318        C326   1.264       .  A
O319       Cr327   2.020   1_556  S
O319        C320   1.260       .  A
C320        O321   1.264       .  A
C320        C754   1.470       .  S
O321       Cr328   1.968       .  S
O322       Cr328   2.024       .  S
O322        C323   1.274       .  A
C323        O324   1.255       .  A
C323        C729   1.470       .  S
O324       Cr329   1.937       .  S
O325       Cr329   1.996       .  S
O325        C326   1.260   1_556  A
Cr327       O330   1.808   1_554  S
Cr328       O330   1.760       .  S
Cr329       O330   1.760       .  S
O331       Cr349   2.019   1_554  S
O331        C339   1.260       .  A
O332       Cr349   2.021       .  S
O332        C333   1.264       .  A
C333        O334   1.261   1_556  A
O334       Cr350   1.997       .  S
O335       Cr350   1.939       .  S
O335        C336   1.256       .  A
C336        O337   1.274       .  A
C336        C905   1.470       .  S
O337       Cr351   2.023       .  S
O338       Cr351   1.968       .  S
O338        C339   1.264       .  A
C339        C930   1.470       .  S
O340       Cr349   2.021   1_554  S
O340        C348   1.264       .  A
O341       Cr349   2.019       .  S
O341        C342   1.260       .  A
C342        O343   1.264       .  A
C342        C380   1.470       .  S
O343       Cr350   1.968   1_556  S
O344       Cr350   2.023       .  S
O344        C345   1.274       .  A
C345        O346   1.256       .  A
C345        C355   1.470       .  S
O346       Cr351   1.939       .  S
O347       Cr351   1.997       .  S
O347        C348   1.261       .  A
Cr349       O352   1.808   1_556  S
Cr350       O352   1.760       .  S
Cr351       O352   1.760       .  S
O353       Cr371   2.020       .  S
O353        C361   1.264       .  A
O354       Cr371   2.020   1_565  S
O354        C355   1.260       .  A
C355        O356   1.264       .  A
O356       Cr372   1.968       .  S
O357       Cr372   2.022       .  S
O357        C358   1.274       .  A
C358        O359   1.256       .  A
O359       Cr373   1.938       .  S
O360       Cr373   1.996       .  S
O360        C361   1.260   1_565  A
C361        C383   1.483   1_554  S
O362       Cr371   2.020       .  S
O362        C370   1.260       .  A
O363       Cr371   2.020   1_565  S
O363        C364   1.264       .  A
C364        O365   1.260       .  A
C364        C430   1.482   1_565  S
O365       Cr372   1.995       .  S
O366       Cr372   1.939       .  S
O366        C367   1.255       .  A
C367        O368   1.274       .  A
C367        C537   1.470       .  S
O368       Cr373   2.023       .  S
O369       Cr373   1.967   1_545  S
O369        C370   1.264       .  A
C370        C600   1.469       .  S
Cr371       O374   1.808   1_545  S
Cr372       O374   1.760       .  S
Cr373       O374   1.760       .  S
O375       Cr393   2.020       .  S
O375        C383   1.264       .  A
O376       Cr393   2.019   1_565  S
O376        C377   1.259       .  A
C377        O378   1.264       .  A
O378       Cr394   1.968       .  S
O379       Cr394   2.023       .  S
O379        C380   1.274       .  A
C380        O381   1.255       .  A
O381       Cr395   1.938       .  S
O382       Cr395   1.996       .  S
O382        C383   1.261   1_565  A
O384       Cr393   2.020       .  S
O384        C392   1.260       .  A
O385       Cr393   2.020   1_565  S
O385        C386   1.264       .  A
C386        O387   1.260       .  A
C386        C405   1.483   1_565  S
O387       Cr394   1.996       .  S
O388       Cr394   1.938       .  S
O388        C389   1.255       .  A
C389        O390   1.274       .  A
C389        C449   1.470       .  S
O390       Cr395   2.024       .  S
O391       Cr395   1.968   1_545  S
O391        C392   1.264       .  A
C392        C512   1.469       .  S
Cr393       O396   1.809   1_545  S
Cr394       O396   1.760       .  S
Cr395       O396   1.760       .  S
O397       Cr415   2.020   1_545  S
O397        C405   1.264       .  A
O398       Cr415   2.020       .  S
O398        C399   1.260       .  A
C399        O400   1.264       .  A
C399        C446   1.470       .  S
O400       Cr416   1.968   1_565  S
O401       Cr416   2.024       .  S
O401        C402   1.274       .  A
C402        O403   1.255       .  A
C402        C515   1.470       .  S
O403       Cr417   1.938       .  S
O404       Cr417   1.996       .  S
O404        C405   1.260       .  A
O406       Cr415   2.021   1_545  S
O406        C414   1.260       .  A
O407       Cr415   2.020       .  S
O407        C408   1.264       .  A
C408        O409   1.261   1_565  A
C408        C427   1.483       .  S
O409       Cr416   1.997       .  S
O410       Cr416   1.938       .  S
O410        C411   1.256       .  A
C411        O412   1.274       .  A
C411       C1043   1.470       .  S
O412       Cr417   2.023       .  S
O413       Cr417   1.968       .  S
O413        C414   1.264       .  A
C414       C1027   1.470       .  S
Cr415       O418   1.808   1_565  S
Cr416       O418   1.760       .  S
Cr417       O418   1.760       .  S
O419       Cr437   2.020       .  S
O419        C427   1.264       .  A
O420       Cr437   2.020   1_545  S
O420        C421   1.260       .  A
C421        O422   1.264       .  A
C421       C1040   1.469       .  S
O422       Cr438   1.968       .  S
O423       Cr438   2.023       .  S
O423        C424   1.274       .  A
C424        O425   1.255       .  A
C424       C1024   1.470       .  S
O425       Cr439   1.938       .  S
O426       Cr439   1.996       .  S
O426        C427   1.260   1_545  A
O428       Cr437   2.020       .  S
O428        C436   1.260       .  A
O429       Cr437   2.020   1_545  S
O429        C430   1.264       .  A
C430        O431   1.260       .  A
O431       Cr438   1.995       .  S
O432       Cr438   1.938       .  S
O432        C433   1.255       .  A
C433        O434   1.274       .  A
C433        C603   1.471       .  S
O434       Cr439   2.024       .  S
O435       Cr439   1.968   1_565  S
O435        C436   1.264       .  A
C436        C534   1.470       .  S
Cr437       O440   1.809   1_565  S
Cr438       O440   1.760       .  S
Cr439       O440   1.760       .  S
O441       Cr459   2.020   1_455  S
O441        C449   1.260       .  A
O442       Cr459   2.020       .  S
O442        C443   1.264       .  A
C443        O444   1.260   1_655  A
C443        C509   1.482   1_565  S
O444       Cr460   1.996       .  S
O445       Cr460   1.938       .  S
O445        C446   1.256       .  A
C446        O447   1.274       .  A
O447       Cr461   2.023       .  S
O448       Cr461   1.968       .  S
O448        C449   1.264       .  A
O450       Cr459   2.020   1_455  S
O450        C458   1.264       .  A
O451       Cr459   2.020       .  S
O451        C452   1.260       .  A
C452        O453   1.264       .  A
O453       Cr460   1.968   1_655  S
O454       Cr460   2.023       .  S
O454        C455   1.274       .  A
C455        O456   1.256       .  A
O456       Cr461   1.938       .  S
O457       Cr461   1.996       .  S
O457        C458   1.260       .  A
C458        C480   1.483   1_455  S
Cr459       O462   1.809   1_655  S
Cr460       O462   1.760       .  S
Cr461       O462   1.760       .  S
O463       Cr481   2.021   1_655  S
O463        C471   1.260       .  A
O464       Cr481   2.020       .  S
O464        C465   1.264       .  A
C465        O466   1.260   1_455  A
C465        C487   1.483       .  S
O466       Cr482   1.996       .  S
O467       Cr482   1.937       .  S
O467        C468   1.255       .  A
C468        O469   1.274       .  A
O469       Cr483   2.023       .  S
O470       Cr483   1.968       .  S
O470        C471   1.264       .  A
O472       Cr481   2.020   1_655  S
O472        C480   1.264       .  A
O473       Cr481   2.021       .  S
O473        C474   1.260       .  A
C474        O475   1.264       .  A
O475       Cr482   1.968   1_455  S
O476       Cr482   2.023       .  S
O476        C477   1.274       .  A
C477        O478   1.255       .  A
O478       Cr483   1.937       .  S
O479       Cr483   1.996       .  S
O479        C480   1.261       .  A
Cr481       O484   1.808   1_455  S
Cr482       O484   1.760       .  S
Cr483       O484   1.760       .  S
O485       Cr503   2.020   1_655  S
O485        C493   1.260       .  A
O486       Cr503   2.020       .  S
O486        C487   1.264       .  A
C487        O488   1.261   1_455  A
O488       Cr504   1.996       .  S
O489       Cr504   1.940       .  S
O489        C490   1.256       .  A
C490        O491   1.274       .  A
O491       Cr505   2.023       .  S
O492       Cr505   1.968       .  S
O492        C493   1.264       .  A
O494       Cr503   2.020   1_655  S
O494        C502   1.264       .  A
O495       Cr503   2.020       .  S
O495        C496   1.260       .  A
C496        O497   1.264       .  A
C496        C622   1.470       .  S
O497       Cr504   1.968   1_455  S
O498       Cr504   2.022       .  S
O498        C499   1.274       .  A
C499        O500   1.256       .  A
C499        C641   1.469       .  S
O500       Cr505   1.938       .  S
O501       Cr505   1.997       .  S
O501        C502   1.261       .  A
C502        C524   1.483   1_655  S
Cr503       O506   1.808   1_455  S
Cr504       O506   1.760       .  S
Cr505       O506   1.760       .  S
O507       Cr525   2.020   1_455  S
O507        C515   1.260       .  A
O508       Cr525   2.020       .  S
O508        C509   1.264       .  A
C509        O510   1.260   1_655  A
O510       Cr526   1.996       .  S
O511       Cr526   1.937       .  S
O511        C512   1.255       .  A
C512        O513   1.274       .  A
O513       Cr527   2.023       .  S
O514       Cr527   1.968       .  S
O514        C515   1.264       .  A
O516       Cr525   2.020   1_455  S
O516        C524   1.264       .  A
O517       Cr525   2.020       .  S
O517        C518   1.260       .  A
C518        O519   1.264       .  A
C518        C644   1.470       .  S
O519       Cr526   1.968   1_655  S
O520       Cr526   2.023       .  S
O520        C521   1.274       .  A
C521        O522   1.255       .  A
C521        C619   1.470       .  S
O522       Cr527   1.938       .  S
O523       Cr527   1.997       .  S
O523        C524   1.261       .  A
Cr525       O528   1.808   1_655  S
Cr526       O528   1.760       .  S
Cr527       O528   1.760       .  S
O529       Cr547   2.021       .  S
O529        C537   1.260       .  A
O530       Cr547   2.020       .  S
O530        C531   1.264       .  A
C531        O532   1.260       .  A
C531        C597   1.483   1_565  S
O532       Cr548   1.996       .  S
O533       Cr548   1.938       .  S
O533        C534   1.255       .  A
C534        O535   1.274       .  A
O535       Cr549   2.023       .  S
O536       Cr549   1.968       .  S
O536        C537   1.264       .  A
O538       Cr547   2.020       .  S
O538        C546   1.264       .  A
O539       Cr547   2.020       .  S
O539        C540   1.260       .  A
C540        O541   1.264       .  A
O541       Cr548   1.968       .  S
O542       Cr548   2.023       .  S
O542        C543   1.274       .  A
C543        O544   1.255       .  A
O544       Cr549   1.938       .  S
O545       Cr549   1.996       .  S
O545        C546   1.260       .  A
C546        C553   1.482       .  S
Cr547       O550   1.808       .  S
Cr548       O550   1.760       .  S
Cr549       O550   1.760       .  S
O551       Cr569   2.020       .  S
O551        C559   1.260       .  A
O552       Cr569   2.020       .  S
O552        C553   1.264       .  A
C553        O554   1.261       .  A
O554       Cr570   1.996       .  S
O555       Cr570   1.938       .  S
O555        C556   1.256       .  A
C556        O557   1.274       .  A
O557       Cr571   2.023       .  S
O558       Cr571   1.968       .  S
O558        C559   1.264       .  A
O560       Cr569   2.020       .  S
O560        C568   1.264       .  A
O561       Cr569   2.019       .  S
O561        C562   1.260       .  A
C562        O563   1.264       .  A
O563       Cr570   1.968       .  S
O564       Cr570   2.022       .  S
O564        C565   1.274       .  A
C565        O566   1.256       .  A
O566       Cr571   1.939       .  S
O567       Cr571   1.996       .  S
O567        C568   1.260       .  A
C568        C590   1.482       .  S
Cr569       O572   1.808       .  S
Cr570       O572   1.759       .  S
Cr571       O572   1.760       .  S
O573       Cr591   2.020       .  S
O573        C581   1.260       .  A
O574       Cr591   2.020       .  S
O574        C575   1.264       .  A
C575        O576   1.260       .  A
C575        C612   1.483       .  S
O576       Cr592   1.996       .  S
O577       Cr592   1.937       .  S
O577        C578   1.255       .  A
C578        O579   1.274       .  A
C578        C678   1.470       .  S
O579       Cr593   2.023       .  S
O580       Cr593   1.967       .  S
O580        C581   1.264       .  A
C581        C697   1.469       .  S
O582       Cr591   2.020       .  S
O582        C590   1.264       .  A
O583       Cr591   2.020       .  S
O583        C584   1.260       .  A
C584        O585   1.264       .  A
O585       Cr592   1.967       .  S
O586       Cr592   2.024       .  S
O586        C587   1.274       .  A
C587        O588   1.255       .  A
O588       Cr593   1.937       .  S
O589       Cr593   1.995       .  S
O589        C590   1.260       .  A
Cr591       O594   1.809       .  S
Cr592       O594   1.760       .  S
Cr593       O594   1.760       .  S
O595       Cr613   2.021       .  S
O595        C603   1.260       .  A
O596       Cr613   2.020       .  S
O596        C597   1.264       .  A
C597        O598   1.260       .  A
O598       Cr614   1.996       .  S
O599       Cr614   1.938       .  S
O599        C600   1.255       .  A
C600        O601   1.274       .  A
O601       Cr615   2.022       .  S
O602       Cr615   1.968       .  S
O602        C603   1.264       .  A
O604       Cr613   2.020       .  S
O604        C612   1.264       .  A
O605       Cr613   2.021       .  S
O605        C606   1.260       .  A
C606        O607   1.264       .  A
C606        C675   1.471       .  S
O607       Cr614   1.968       .  S
O608       Cr614   2.022       .  S
O608        C609   1.274       .  A
C609        O610   1.256       .  A
C609        C700   1.469       .  S
O610       Cr615   1.938       .  S
O611       Cr615   1.996       .  S
O611        C612   1.260       .  A
Cr613       O616   1.808       .  S
Cr614       O616   1.760       .  S
Cr615       O616   1.760       .  S
O617       Cr635   2.021       .  S
O617        C625   1.264       .  A
O618       Cr635   2.020   1_556  S
O618        C619   1.260       .  A
C619        O620   1.264       .  A
O620       Cr636   1.968       .  S
O621       Cr636   2.023       .  S
O621        C622   1.274       .  A
C622        O623   1.255       .  A
O623       Cr637   1.938       .  S
O624       Cr637   1.997       .  S
O624        C625   1.261   1_556  A
C625        C647   1.484   1_455  S
O626       Cr635   2.021       .  S
O626        C634   1.260       .  A
O627       Cr635   2.020   1_556  S
O627        C628   1.264       .  A
C628        O629   1.260       .  A
C628        C691   1.482   1_556  S
O629       Cr636   1.996       .  S
O630       Cr636   1.938       .  S
O630        C631   1.256       .  A
C631        O632   1.274       .  A
C631        C804   1.471       .  S
O632       Cr637   2.024       .  S
O633       Cr637   1.968   1_554  S
O633        C634   1.264       .  A
C634        C873   1.470       .  S
Cr635       O638   1.809   1_554  S
Cr636       O638   1.760       .  S
Cr637       O638   1.760       .  S
O639       Cr657   2.020       .  S
O639        C647   1.264       .  A
O640       Cr657   2.020   1_556  S
O640        C641   1.260       .  A
C641        O642   1.263       .  A
O642       Cr658   1.967       .  S
O643       Cr658   2.024       .  S
O643        C644   1.274       .  A
C644        O645   1.255       .  A
O645       Cr659   1.937       .  S
O646       Cr659   1.997       .  S
O646        C647   1.261   1_556  A
O648       Cr657   2.020       .  S
O648        C656   1.260       .  A
O649       Cr657   2.021   1_556  S
O649        C650   1.264       .  A
C650        O651   1.261       .  A
C650        C669   1.483   1_556  S
O651       Cr658   1.997       .  S
O652       Cr658   1.937       .  S
O652        C653   1.255       .  A
C653        O654   1.274       .  A
O654       Cr659   2.023       .  S
O655       Cr659   1.968   1_554  S
O655        C656   1.264       .  A
Cr657       O660   1.808   1_554  S
Cr658       O660   1.760       .  S
Cr659       O660   1.760       .  S
O661       Cr679   2.020   1_554  S
O661        C669   1.264       .  A
O662       Cr679   2.021       .  S
O662        C663   1.260       .  A
C663        O664   1.264       .  A
O664       Cr680   1.968   1_556  S
O665       Cr680   2.023       .  S
O665        C666   1.274       .  A
C666        O667   1.256       .  A
O667       Cr681   1.938       .  S
O668       Cr681   1.996       .  S
O668        C669   1.260       .  A
O670       Cr679   2.020   1_554  S
O670        C678   1.260       .  A
O671       Cr679   2.021       .  S
O671        C672   1.264       .  A
C672        O673   1.260   1_556  A
C672        C694   1.483       .  S
O673       Cr680   1.996       .  S
O674       Cr680   1.939       .  S
O674        C675   1.255       .  A
C675        O676   1.274       .  A
O676       Cr681   2.024       .  S
O677       Cr681   1.968       .  S
O677        C678   1.264       .  A
Cr679       O682   1.809   1_556  S
Cr680       O682   1.760       .  S
Cr681       O682   1.760       .  S
O683       Cr701   2.020   1_554  S
O683        C691   1.264       .  A
O684       Cr701   2.020       .  S
O684        C685   1.260       .  A
C685        O686   1.264       .  A
C685        C807   1.470       .  S
O686       Cr702   1.968   1_556  S
O687       Cr702   2.023       .  S
O687        C688   1.274       .  A
C688        O689   1.255       .  A
C688        C870   1.469       .  S
O689       Cr703   1.938       .  S
O690       Cr703   1.996       .  S
O690        C691   1.260       .  A
O692       Cr701   2.020   1_554  S
O692        C700   1.260       .  A
O693       Cr701   2.020       .  S
O693        C694   1.264       .  A
C694        O695   1.260   1_556  A
O695       Cr702   1.996       .  S
O696       Cr702   1.938       .  S
O696        C697   1.256       .  A
C697        O698   1.274       .  A
O698       Cr703   2.022       .  S
O699       Cr703   1.967       .  S
O699        C700   1.264       .  A
Cr701       O704   1.808   1_556  S
Cr702       O704   1.760       .  S
Cr703       O704   1.760       .  S
O705       Cr723   2.020       .  S
O705        C713   1.264       .  A
O706       Cr723   2.019       .  S
O706        C707   1.260       .  A
C707        O708   1.264       .  A
O708       Cr724   1.968       .  S
O709       Cr724   2.022       .  S
O709        C710   1.274       .  A
C710        O711   1.255       .  A
O711       Cr725   1.938       .  S
O712       Cr725   1.996       .  S
O712        C713   1.261       .  A
C713        C738   1.482   1_545  S
O714       Cr723   2.019       .  S
O714        C722   1.260       .  A
O715       Cr723   2.020       .  S
O715        C716   1.264       .  A
C716        O717   1.260       .  A
C716        C779   1.482       .  S
O717       Cr724   1.996       .  S
O718       Cr724   1.938       .  S
O718        C719   1.255       .  A
C719        O720   1.274       .  A
C719        C999   1.469       .  S
O720       Cr725   2.023       .  S
O721       Cr725   1.967       .  S
O721        C722   1.264       .  A
C722       C1018   1.469       .  S
Cr723       O726   1.808       .  S
Cr724       O726   1.760       .  S
Cr725       O726   1.760       .  S
O727       Cr745   2.020       .  S
O727        C735   1.264       .  A
O728       Cr745   2.021       .  S
O728        C729   1.260       .  A
C729        O730   1.264       .  A
O730       Cr746   1.968       .  S
O731       Cr746   2.023       .  S
O731        C732   1.274       .  A
C732        O733   1.256       .  A
O733       Cr747   1.939       .  S
O734       Cr747   1.996       .  S
O734        C735   1.260       .  A
C735        C757   1.483       .  S
O736       Cr745   2.021       .  S
O736        C744   1.260       .  A
O737       Cr745   2.020       .  S
O737        C738   1.264       .  A
C738        O739   1.260       .  A
O739       Cr746   1.996       .  S
O740       Cr746   1.938       .  S
O740        C741   1.255       .  A
C741        O742   1.274       .  A
O742       Cr747   2.022       .  S
O743       Cr747   1.968       .  S
O743        C744   1.264       .  A
Cr745       O748   1.809       .  S
Cr746       O748   1.760       .  S
Cr747       O748   1.759       .  S
O749       Cr767   2.020       .  S
O749        C757   1.264       .  A
O750       Cr767   2.021       .  S
O750        C751   1.260       .  A
C751        O752   1.264       .  A
O752       Cr768   1.968       .  S
O753       Cr768   2.023       .  S
O753        C754   1.274       .  A
C754        O755   1.255       .  A
O755       Cr769   1.938       .  S
O756       Cr769   1.996       .  S
O756        C757   1.260       .  A
O758       Cr767   2.021       .  S
O758        C766   1.260       .  A
O759       Cr767   2.020       .  S
O759        C760   1.264       .  A
C760        O761   1.261       .  A
C760        C782   1.483       .  S
O761       Cr768   1.997       .  S
O762       Cr768   1.938       .  S
O762        C763   1.255       .  A
C763        O764   1.274       .  A
C763        C801   1.470       .  S
O764       Cr769   2.023       .  S
O765       Cr769   1.968       .  S
O765        C766   1.264       .  A
C766        C820   1.471       .  S
Cr767       O770   1.808       .  S
Cr768       O770   1.760       .  S
Cr769       O770   1.760       .  S
O771       Cr789   2.020       .  S
O771        C779   1.264       .  A
O772       Cr789   2.021       .  S
O772        C773   1.260       .  A
C773        O774   1.264       .  A
C773        C996   1.470       .  S
O774       Cr790   1.968       .  S
O775       Cr790   2.024       .  S
O775        C776   1.274       .  A
C776        O777   1.255       .  A
C776       C1021   1.471       .  S
O777       Cr791   1.938       .  S
O778       Cr791   1.996       .  S
O778        C779   1.260       .  A
O780       Cr789   2.020       .  S
O780        C788   1.260       .  A
O781       Cr789   2.020       .  S
O781        C782   1.264       .  A
C782        O783   1.261       .  A
O783       Cr790   1.997       .  S
O784       Cr790   1.938       .  S
O784        C785   1.255       .  A
C785        O786   1.274       .  A
C785        C823   1.470       .  S
O786       Cr791   2.023       .  S
O787       Cr791   1.968       .  S
O787        C788   1.264       .  A
C788        C798   1.470       .  S
Cr789       O792   1.809       .  S
Cr790       O792   1.760       .  S
Cr791       O792   1.760       .  S
O793       Cr811   2.020       .  S
O793        C801   1.260       .  A
O794       Cr811   2.020       .  S
O794        C795   1.264       .  A
C795        O796   1.260       .  A
C795        C817   1.483       .  S
O796       Cr812   1.996       .  S
O797       Cr812   1.937       .  S
O797        C798   1.255       .  A
C798        O799   1.274       .  A
O799       Cr813   2.023       .  S
O800       Cr813   1.967       .  S
O800        C801   1.264       .  A
O802       Cr811   2.020       .  S
O802        C810   1.264       .  A
O803       Cr811   2.021       .  S
O803        C804   1.260       .  A
C804        O805   1.264       .  A
O805       Cr812   1.968       .  S
O806       Cr812   2.023       .  S
O806        C807   1.274       .  A
C807        O808   1.255       .  A
O808       Cr813   1.937       .  S
O809       Cr813   1.996       .  S
O809        C810   1.261       .  A
C810        C876   1.483   1_556  S
Cr811       O814   1.808       .  S
Cr812       O814   1.760       .  S
Cr813       O814   1.760       .  S
O815       Cr833   2.020       .  S
O815        C823   1.260       .  A
O816       Cr833   2.020       .  S
O816        C817   1.264       .  A
C817        O818   1.261       .  A
O818       Cr834   1.997       .  S
O819       Cr834   1.940       .  S
O819        C820   1.256       .  A
C820        O821   1.274       .  A
O821       Cr835   2.024       .  S
O822       Cr835   1.968       .  S
O822        C823   1.264       .  A
O824       Cr833   2.020       .  S
O824        C832   1.264       .  A
O825       Cr833   2.020       .  S
O825        C826   1.260       .  A
C826        O827   1.264       .  A
O827       Cr834   1.968       .  S
O828       Cr834   2.022       .  S
O828        C829   1.274       .  A
C829        O830   1.256       .  A
O830       Cr835   1.938       .  S
O831       Cr835   1.997       .  S
O831        C832   1.261       .  A
C832        C854   1.483       .  S
Cr833       O836   1.808       .  S
Cr834       O836   1.760       .  S
Cr835       O836   1.760       .  S
O837       Cr855   2.020       .  S
O837        C845   1.260       .  A
O838       Cr855   2.019       .  S
O838        C839   1.264       .  A
C839        O840   1.260       .  A
C839        C861   1.482       .  S
O840       Cr856   1.995       .  S
O841       Cr856   1.937       .  S
O841        C842   1.255       .  A
C842        O843   1.274       .  A
C842        C942   1.469       .  S
O843       Cr857   2.023       .  S
O844       Cr857   1.968       .  S
O844        C845   1.264       .  A
C845        C952   1.470       .  S
O846       Cr855   2.020       .  S
O846        C854   1.264       .  A
O847       Cr855   2.020       .  S
O847        C848   1.260       .  A
C848        O849   1.264       .  A
O849       Cr856   1.968       .  S
O850       Cr856   2.023       .  S
O850        C851   1.274       .  A
C851        O852   1.255       .  A
O852       Cr857   1.938       .  S
O853       Cr857   1.997       .  S
O853        C854   1.261       .  A
Cr855       O858   1.808       .  S
Cr856       O858   1.760       .  S
Cr857       O858   1.760       .  S
O859       Cr877   2.020       .  S
O859        C867   1.260       .  A
O860       Cr877   2.020       .  S
O860        C861   1.264       .  A
C861        O862   1.260       .  A
O862       Cr878   1.995       .  S
O863       Cr878   1.938       .  S
O863        C864   1.256       .  A
C864        O865   1.274       .  A
C864        C949   1.470       .  S
O865       Cr879   2.023       .  S
O866       Cr879   1.968       .  S
O866        C867   1.264       .  A
C867        C939   1.470       .  S
O868       Cr877   2.020       .  S
O868        C876   1.264       .  A
O869       Cr877   2.020       .  S
O869        C870   1.260       .  A
C870        O871   1.264       .  A
O871       Cr878   1.968       .  S
O872       Cr878   2.023       .  S
O872        C873   1.274       .  A
C873        O874   1.256       .  A
O874       Cr879   1.938       .  S
O875       Cr879   1.996       .  S
O875        C876   1.260       .  A
Cr877       O880   1.809       .  S
Cr878       O880   1.760       .  S
Cr879       O880   1.759       .  S
O881       Cr899   2.020   1_655  S
O881        C889   1.264       .  A
O882       Cr899   2.020       .  S
O882        C883   1.260       .  A
C883        O884   1.264       .  A
C883       C1049   1.470       .  S
O884       Cr900   1.968   1_455  S
O885       Cr900   2.022       .  S
O885        C886   1.274       .  A
C886        O887   1.255       .  A
C886        C980   1.470       .  S
O887       Cr901   1.938       .  S
O888       Cr901   1.996       .  S
O888        C889   1.260       .  A
C889        C958   1.483   1_655  S
O890       Cr899   2.020   1_655  S
O890        C898   1.260       .  A
O891       Cr899   2.020       .  S
O891        C892   1.264       .  A
C892        O893   1.260   1_455  A
C892        C914   1.482   1_545  S
O893       Cr900   1.995       .  S
O894       Cr900   1.938       .  S
O894        C895   1.255       .  A
C895        O896   1.274       .  A
O896       Cr901   2.024       .  S
O897       Cr901   1.968       .  S
O897        C898   1.264       .  A
Cr899       O902   1.809   1_455  S
Cr900       O902   1.760       .  S
Cr901       O902   1.760       .  S
O903       Cr921   2.020   1_655  S
O903        C911   1.264       .  A
O904       Cr921   2.020       .  S
O904        C905   1.260       .  A
C905        O906   1.264       .  A
O906       Cr922   1.968   1_455  S
O907       Cr922   2.021       .  S
O907        C908   1.274       .  A
C908        O909   1.256       .  A
O909       Cr923   1.937       .  S
O910       Cr923   1.996       .  S
O910        C911   1.260       .  A
C911        C933   1.483   1_655  S
O912       Cr921   2.020   1_655  S
O912        C920   1.260       .  A
O913       Cr921   2.020       .  S
O913        C914   1.264       .  A
C914        O915   1.260   1_455  A
O915       Cr922   1.995       .  S
O916       Cr922   1.939       .  S
O916        C917   1.255       .  A
C917        O918   1.274       .  A
O918       Cr923   2.024       .  S
O919       Cr923   1.968       .  S
O919        C920   1.264       .  A
Cr921       O924   1.808   1_455  S
Cr922       O924   1.760       .  S
Cr923       O924   1.760       .  S
O925       Cr943   2.020   1_455  S
O925        C933   1.264       .  A
O926       Cr943   2.019       .  S
O926        C927   1.259       .  A
C927        O928   1.264       .  A
O928       Cr944   1.968   1_655  S
O929       Cr944   2.023       .  S
O929        C930   1.274       .  A
C930        O931   1.255       .  A
O931       Cr945   1.938       .  S
O932       Cr945   1.996       .  S
O932        C933   1.261       .  A
O934       Cr943   2.020   1_455  S
O934        C942   1.260       .  A
O935       Cr943   2.020       .  S
O935        C936   1.264       .  A
C936        O937   1.260   1_655  A
C936        C955   1.483       .  S
O937       Cr944   1.996       .  S
O938       Cr944   1.938       .  S
O938        C939   1.255       .  A
C939        O940   1.274       .  A
O940       Cr945   2.024       .  S
O941       Cr945   1.968       .  S
O941        C942   1.264       .  A
Cr943       O946   1.809   1_655  S
Cr944       O946   1.760       .  S
Cr945       O946   1.760       .  S
O947       Cr965   2.020       .  S
O947        C955   1.264       .  A
O948       Cr965   2.020   1_455  S
O948        C949   1.260       .  A
C949        O950   1.264       .  A
O950       Cr966   1.968       .  S
O951       Cr966   2.023       .  S
O951        C952   1.274       .  A
C952        O953   1.255       .  A
O953       Cr967   1.938       .  S
O954       Cr967   1.996       .  S
O954        C955   1.260   1_455  A
O956       Cr965   2.021       .  S
O956        C964   1.260       .  A
O957       Cr965   2.020   1_455  S
O957        C958   1.264       .  A
C958        O959   1.261       .  A
O959       Cr966   1.997       .  S
O960       Cr966   1.939       .  S
O960        C961   1.256       .  A
C961        O962   1.274       .  A
C961       C1046   1.470       .  S
O962       Cr967   2.023       .  S
O963       Cr967   1.968   1_655  S
O963        C964   1.264       .  A
C964        C983   1.471       .  S
Cr965       O968   1.808   1_655  S
Cr966       O968   1.760       .  S
Cr967       O968   1.760       .  S
O969       Cr987   2.021       .  S
O969        C977   1.260       .  A
O970       Cr987   2.020       .  S
O970        C971   1.264       .  A
C971        O972   1.261       .  A
C971       C1008   1.483       .  S
O972       Cr988   1.997       .  S
O973       Cr988   1.938       .  S
O973        C974   1.256       .  A
C974        O975   1.274       .  A
O975       Cr989   2.022       .  S
O976       Cr989   1.969       .  S
O976        C977   1.264       .  A
O978       Cr987   2.020       .  S
O978        C986   1.264       .  A
O979       Cr987   2.020       .  S
O979        C980   1.260       .  A
C980        O981   1.264       .  A
O981       Cr988   1.968       .  S
O982       Cr988   2.024       .  S
O982        C983   1.274       .  A
C983        O984   1.256       .  A
O984       Cr989   1.940       .  S
O985       Cr989   1.996       .  S
O985        C986   1.261       .  A
C986       C1052   1.483   1_655  S
Cr987       O990   1.808       .  S
Cr988       O990   1.760       .  S
Cr989       O990   1.759       .  S
O991      Cr1009   2.020       .  S
O991        C999   1.260       .  A
O992      Cr1009   2.020       .  S
O992        C993   1.264       .  A
C993        O994   1.261       .  A
C993       C1015   1.483       .  S
O994      Cr1010   1.997       .  S
O995      Cr1010   1.937       .  S
O995        C996   1.255       .  A
C996        O997   1.274       .  A
O997      Cr1011   2.024       .  S
O998      Cr1011   1.968       .  S
O998        C999   1.264       .  A
O1000     Cr1009   2.020       .  S
O1000      C1008   1.264       .  A
O1001     Cr1009   2.020       .  S
O1001      C1002   1.260       .  A
C1002      O1003   1.264       .  A
O1003     Cr1010   1.968       .  S
O1004     Cr1010   2.024       .  S
O1004      C1005   1.274       .  A
C1005      O1006   1.255       .  A
O1006     Cr1011   1.937       .  S
O1007     Cr1011   1.997       .  S
O1007      C1008   1.261       .  A
Cr1009     O1012   1.809       .  S
Cr1010     O1012   1.760       .  S
Cr1011     O1012   1.760       .  S
O1013     Cr1031   2.021       .  S
O1013      C1021   1.260       .  A
O1014     Cr1031   2.020       .  S
O1014      C1015   1.264       .  A
C1015      O1016   1.261       .  A
O1016     Cr1032   1.997       .  S
O1017     Cr1032   1.938       .  S
O1017      C1018   1.256       .  A
C1018      O1019   1.274       .  A
O1019     Cr1033   2.022       .  S
O1020     Cr1033   1.969       .  S
O1020      C1021   1.264       .  A
O1022     Cr1031   2.020       .  S
O1022      C1030   1.264       .  A
O1023     Cr1031   2.020       .  S
O1023      C1024   1.260       .  A
C1024      O1025   1.264       .  A
O1025     Cr1032   1.968       .  S
O1026     Cr1032   2.024       .  S
O1026      C1027   1.274       .  A
C1027      O1028   1.256       .  A
O1028     Cr1033   1.940       .  S
O1029     Cr1033   1.996       .  S
O1029      C1030   1.261       .  A
C1030      C1037   1.483       .  S
Cr1031     O1034   1.808       .  S
Cr1032     O1034   1.760       .  S
Cr1033     O1034   1.760       .  S
O1035     Cr1053   2.020       .  S
O1035      C1043   1.260       .  A
O1036     Cr1053   2.021       .  S
O1036      C1037   1.264       .  A
C1037      O1038   1.260       .  A
O1038     Cr1054   1.996       .  S
O1039     Cr1054   1.937       .  S
O1039      C1040   1.255       .  A
C1040      O1041   1.274       .  A
O1041     Cr1055   2.023       .  S
O1042     Cr1055   1.968       .  S
O1042      C1043   1.264       .  A
O1044     Cr1053   2.021       .  S
O1044      C1052   1.264       .  A
O1045     Cr1053   2.020       .  S
O1045      C1046   1.260       .  A
C1046      O1047   1.264       .  A
O1047     Cr1054   1.968       .  S
O1048     Cr1054   2.023       .  S
O1048      C1049   1.274       .  A
C1049      O1050   1.255       .  A
O1050     Cr1055   1.937       .  S
O1051     Cr1055   1.996       .  S
O1051      C1052   1.260       .  A
Cr1053     O1056   1.808       .  S
Cr1054     O1056   1.760       .  S
Cr1055     O1056   1.760       .  S
