geometry optimzed in LAMMPS
_audit_creation_date              2020-11-30 
_audit_creation_method            'lammps2cif' 
_symmetry_space_group_name_H-M    'P1' 
_symmetry_Int_Tables_number       1 
_symmetry_cell_setting            triclinic 
loop_ 
_symmetry_equiv_pos_as_xyz 
  x,y,z 
_cell_length_a                    30.19630585 
_cell_length_b                    32.1280673332048 
_cell_length_c                    33.15028709383109 
_cell_angle_alpha                 90.14748114814694 
_cell_angle_beta                  90.20800442381447 
_cell_angle_gamma                 90.29430552787089 
loop_ 
_atom_site_label 
_atom_site_type_symbol 
_atom_site_fract_x 
_atom_site_fract_y 
_atom_site_fract_z 
_atom_site_charge 
N1          N  0.30398844  0.44122939  0.03999617    -0.06800
N2          N  0.33774459  0.42582529  0.06084464    -0.58900
N3          N  0.26892710  0.42050096  0.94771099    -0.06500
N4          N  0.27990205  0.38844427  0.92525851    -0.61100
N5          N  0.30178051  0.44761068  0.94956777    -0.06100
N6          N  0.33618081  0.43313479  0.92931825    -0.58900
N7          N  0.27123166  0.41392292  0.03887841    -0.05800
N8          N  0.28161290  0.38033478  0.05933218    -0.61400
C9          C  0.32268099  0.38815578  0.07349019     0.95400
C10         C  0.32160253  0.39660708  0.91343135     0.95100
N11         N  0.13503261  0.44839822  0.94911895    -0.07000
N12         N  0.11443774  0.45037910  0.91394922    -0.59500
N13         N  0.16695642  0.41364360  0.04114309    -0.05100
N14         N  0.16519616  0.38894352  0.07282114    -0.60800
N15         N  0.13489645  0.44100854  0.04249858    -0.07000
N16         N  0.11066816  0.43553404  0.07511590    -0.59800
N17         N  0.16642909  0.42033763  0.94788113    -0.04800
N18         N  0.16765028  0.40251927  0.91213963    -0.60900
Mn19       Mn  0.21786218  0.41636243  0.99408840     1.18400
C20         C  0.13510147  0.42135159  0.89117207     0.97400
C21         C  0.12967501  0.40266188  0.09369877     0.98100
N22         N  0.30016660  0.54925796  0.95581351    -0.07100
N23         N  0.33164920  0.56542484  0.93267944    -0.63400
N24         N  0.26955490  0.56925220  0.04954447    -0.05900
N25         N  0.28117961  0.60132146  0.07207158    -0.64000
N26         N  0.30274849  0.54290726  0.04637676    -0.06600
N27         N  0.33775606  0.55764631  0.06598598    -0.63600
N28         N  0.26673848  0.57534297  0.95833724    -0.05500
N29         N  0.27411646  0.60861595  0.93644446    -0.64300
Mn30       Mn  0.30324312  0.49531499  0.99792395     1.10700
C31         C  0.31432365  0.60224140  0.92028274     0.98700
C32         C  0.32338539  0.59354985  0.08281615     0.98700
N33         N  0.13460964  0.53652999  0.04976634    -0.06600
N34         N  0.11293233  0.53402655  0.08412242    -0.61900
N35         N  0.16377024  0.57275999  0.95842510    -0.05900
N36         N  0.16236635  0.59632314  0.92594983    -0.58700
N37         N  0.13278389  0.54404127  0.95667433    -0.07200
N38         N  0.10960920  0.54755303  0.92303504    -0.61500
N39         N  0.16532302  0.56559941  0.05180890    -0.06200
N40         N  0.16480627  0.58392730  0.08745414    -0.58700
Mn41       Mn  0.13234397  0.49248549  0.99949342     1.20200
Mn42       Mn  0.21584781  0.57160412  0.00476719     1.10100
Cl43       Cl  0.21762329  0.49395863  0.99922448    -0.86700
C44         C  0.13170561  0.56414435  0.10702106     0.95700
C45         C  0.12820935  0.58055373  0.90416439     0.95500
N46         N  0.85588267  0.44732978  0.03969842    -0.06800
N47         N  0.87768118  0.44688253  0.07418792    -0.58900
N48         N  0.82276629  0.42266509  0.94450449    -0.06500
N49         N  0.82161375  0.40483140  0.90857597    -0.61100
N50         N  0.85439374  0.45080388  0.94602355    -0.06100
N51         N  0.87578418  0.45243726  0.91140872    -0.58900
N52         N  0.82528039  0.41815548  0.03909254    -0.05800
N53         N  0.82591027  0.39691979  0.07316966    -0.61400
C54         C  0.85915452  0.41493206  0.09449193     0.95400
C55         C  0.85512087  0.42348869  0.88845947     0.95100
N56         N  0.68673660  0.44573766  0.94980809    -0.07000
N57         N  0.65336942  0.43175203  0.92738839    -0.59500
N58         N  0.72207382  0.41556044  0.03937497    -0.05100
N59         N  0.71335453  0.38259628  0.06149571    -0.60800
N60         N  0.68908377  0.44225218  0.04093530    -0.07000
N61         N  0.65683534  0.42697449  0.06359927    -0.59800
N62         N  0.72017687  0.41964175  0.94775042    -0.04800
N63         N  0.71082596  0.38859282  0.92327602    -0.60900
Mn64       Mn  0.77315556  0.41797564  0.99262463     1.18400
C65         C  0.66947506  0.39652733  0.91027532     0.97400
C66         C  0.67307878  0.39021818  0.07705927     0.98100
N67         N  0.85330257  0.54589701  0.95018656    -0.07100
N68         N  0.87393639  0.54621780  0.91534718    -0.63400
N69         N  0.82472009  0.57072305  0.04481046    -0.05900
N70         N  0.82755998  0.59113938  0.07930763    -0.64000
N71         N  0.85620062  0.54280638  0.04266656    -0.06600
N72         N  0.88115291  0.54370063  0.07537585    -0.63600
N73         N  0.82152597  0.57364107  0.95057328    -0.05500
N74         N  0.81985552  0.59329361  0.91562445    -0.64300
Mn75       Mn  0.85668519  0.49663764  0.99474435     1.10700
C76         C  0.85309743  0.57603713  0.89408494     0.98700
C77         C  0.86304191  0.57411020  0.09803912     0.98700
N78         N  0.68744023  0.54401891  0.04437313    -0.06600
N79         N  0.65397920  0.55759480  0.06652085    -0.61900
N80         N  0.71796475  0.57477033  0.95406309    -0.05900
N81         N  0.70703450  0.60763686  0.93265974    -0.58700
N82         N  0.68557639  0.54706890  0.95369548    -0.07200
N83         N  0.65160489  0.56144159  0.93260170    -0.61500
N84         N  0.72028447  0.57126295  0.04547456    -0.06200
N85         N  0.71028592  0.60278392  0.06907601    -0.58700
Mn86       Mn  0.68595996  0.49467591  0.99727052     1.20200
Mn87       Mn  0.77169666  0.57368381  0.99885522     1.10100
Cl88       Cl  0.77126565  0.49582962  0.99608309    -0.86700
C89         C  0.66929438  0.59382162  0.08252614     0.95700
C90         C  0.66607213  0.59877861  0.91878842     0.95500
N91         N  0.45094758  0.03703767  0.28219269    -0.06800
N92         N  0.43316691  0.05823459  0.31266244    -0.58900
N93         N  0.42067582  0.94472744  0.24931940    -0.06500
N94         N  0.38401701  0.92428178  0.25742001    -0.61100
N95         N  0.44835747  0.94337827  0.28023529    -0.06100
N96         N  0.42965649  0.92225598  0.31028270    -0.58900
N97         N  0.42391378  0.03829213  0.25083817    -0.05800
N98         N  0.38893402  0.06074626  0.25881119    -0.61400
C99         C  0.39475984  0.07359748  0.29698044     0.95400
C100        C  0.38959951  0.91001532  0.29516961     0.95100
N101        N  0.45305708  0.94463109  0.12667224    -0.07000
N102        N  0.45272155  0.90881142  0.10712985    -0.59500
N103        N  0.42624499  0.04265787  0.15713824    -0.05100
N104        N  0.40664699  0.07929344  0.15874594    -0.60800
N105        N  0.45549714  0.04208750  0.12793981    -0.07000
N106        N  0.45615208  0.07823920  0.10889755    -0.59800
N107        N  0.42309946  0.94449769  0.15522776    -0.04800
N108        N  0.40159303  0.90859887  0.15549746    -0.60900
Mn109      Mn  0.42291702  0.99256730  0.20246286     1.18400
C110        C  0.42026560  0.88662889  0.12515557     0.97400
C111        C  0.42515260  0.10105931  0.12817792     0.98100
N112        N  0.55885324  0.94097073  0.27945155    -0.07100
N113        N  0.57398076  0.91530667  0.30769217    -0.63400
N114        N  0.58873596  0.03536721  0.24996315    -0.05900
N115        N  0.62506544  0.05630631  0.25780477    -0.64000
N116        N  0.56217211  0.03491691  0.28150336    -0.06600
N117        N  0.58171246  0.05508041  0.31192915    -0.63600
N118        N  0.58655930  0.94152401  0.24875784    -0.05500
N119        N  0.61965798  0.91593899  0.25490547    -0.64300
Mn120      Mn  0.50520930  0.98909966  0.28248829     1.10700
C121        C  0.61154269  0.89929023  0.29128945     0.98700
C122        C  0.62091359  0.06868097  0.29625559     0.98700
N123        N  0.55689256  0.03974275  0.12790259    -0.06600
N124        N  0.55770189  0.07594763  0.10915411    -0.61900
N125        N  0.58423044  0.94135445  0.15558831    -0.05900
N126        N  0.60319022  0.90453170  0.15733986    -0.58700
N127        N  0.55449954  0.94223016  0.12663659    -0.07200
N128        N  0.55288508  0.90588171  0.10787218    -0.61500
N129        N  0.58722536  0.03876577  0.15630301    -0.06200
N130        N  0.60965765  0.07414530  0.15717372    -0.58700
Mn131      Mn  0.50493487  0.99219295  0.12552808     1.20200
Mn132      Mn  0.58731279  0.98937444  0.20211065     1.10100
Cl133      Cl  0.50506525  0.99085598  0.20396516    -0.86700
C134        C  0.59128498  0.09689398  0.12726910     0.95700
C135        C  0.58395196  0.88293310  0.12700416     0.95500
N136        N  0.44754321  0.04592825  0.86050551    -0.06800
N137        N  0.44641405  0.08042486  0.88215374    -0.58900
N138        N  0.41758346  0.95015955  0.82656637    -0.06500
N139        N  0.39613974  0.91437414  0.82329308    -0.61100
N140        N  0.44558125  0.94888207  0.85696737    -0.06100
N141        N  0.44357594  0.91230543  0.87503328    -0.58900
N142        N  0.41972590  0.04811439  0.83006587    -0.05800
N143        N  0.39891578  0.08420257  0.83063519    -0.61400
C144        C  0.41574287  0.10406968  0.86346524     0.95400
C145        C  0.41249111  0.89105980  0.85379219     0.95100
N146        N  0.45091717  0.95496977  0.70386737    -0.07000
N147        N  0.43553988  0.93321085  0.67248757    -0.59500
N148        N  0.42417295  0.04909324  0.73507692    -0.05100
N149        N  0.39092523  0.07312028  0.72456498    -0.60800
N150        N  0.45482465  0.04894773  0.70675553    -0.07000
N151        N  0.44190203  0.07233566  0.67600547    -0.59800
N152        N  0.42096772  0.95470519  0.73279969    -0.04800
N153        N  0.38622163  0.93214070  0.72237103    -0.60900
Mn154      Mn  0.41967624  0.00068387  0.78165276     1.18400
C155        C  0.39544847  0.91838791  0.68503542     0.97400
C156        C  0.40251779  0.08806599  0.68818830     0.98100
N157        N  0.54717686  0.94732202  0.86325057    -0.07100
N158        N  0.54514266  0.91035074  0.88058412    -0.63400
N159        N  0.58025232  0.04615066  0.83960243    -0.05900
N160        N  0.59987532  0.08293259  0.83908034    -0.64000
N161        N  0.54858438  0.04552021  0.86663136    -0.06600
N162        N  0.54629598  0.08197017  0.88519535    -0.63600
N163        N  0.57952564  0.94836629  0.83695786    -0.05500
N164        N  0.60038363  0.91238127  0.83608578    -0.64300
Mn165      Mn  0.49710955  0.99674205  0.86372450     1.10700
C166        C  0.57892932  0.88898884  0.86371090     0.98700
C167        C  0.57896983  0.10479054  0.86809257     0.98700
N168        N  0.56417544  0.04782689  0.71450814    -0.06600
N169        N  0.58294804  0.07323514  0.68780142    -0.61900
N170        N  0.58733236  0.95261548  0.74410460    -0.05900
N171        N  0.62070753  0.92722376  0.73885601    -0.58700
N172        N  0.56125116  0.95285403  0.71211726    -0.07200
N173        N  0.57766343  0.92773764  0.68404856    -0.61500
N174        N  0.58900537  0.04668340  0.74727198    -0.06200
N175        N  0.62351239  0.07143271  0.74409662    -0.58700
Mn176      Mn  0.50804870  0.00107113  0.70777231     1.20200
Mn177      Mn  0.58475249  0.99840770  0.79251227     1.10100
Cl178      Cl  0.50231656  0.99918590  0.78599858    -0.86700
C179        C  0.61959902  0.08834314  0.70732065     0.95700
C180        C  0.61431776  0.91123785  0.70181966     0.95500
N181        N  0.06247087  0.21118670  0.45483560    -0.06800
N182        N  0.07943312  0.17978636  0.43373552    -0.58900
N183        N  0.08955180  0.24741176  0.54515223    -0.06500
N184        N  0.12550830  0.23894655  0.56598704    -0.61100
N185        N  0.06175922  0.21552815  0.54554035    -0.06100
N186        N  0.07968195  0.18442280  0.56614183    -0.58900
N187        N  0.09017561  0.24302901  0.45426688    -0.05800
N188        N  0.12502799  0.23453298  0.43238386    -0.61400
C189        C  0.11838900  0.19534950  0.41936404     0.95400
C190        C  0.11898338  0.20007112  0.57957082     0.95100
N191        N  0.05775466  0.37447115  0.53949194    -0.07000
N192        N  0.05866016  0.39794690  0.57212582    -0.59500
N193        N  0.08818205  0.33919756  0.44805458    -0.05100
N194        N  0.10886971  0.33594671  0.41323057    -0.60800
N195        N  0.05887296  0.36920698  0.44665100    -0.07000
N196        N  0.05931757  0.38729250  0.41099044    -0.59800
N197        N  0.08748929  0.34491627  0.54186621    -0.04800
N198        N  0.10933016  0.34762826  0.57630296    -0.60900
Mn199      Mn  0.08950967  0.29420743  0.49749718     1.18400
C200        C  0.09156320  0.38134729  0.59436606     0.97400
C201        C  0.09102970  0.36656023  0.39066957     0.98100
N202        N  0.95183611  0.21667124  0.54486340    -0.07100
N203        N  0.93662291  0.18902038  0.57129148    -0.63400
N204        N  0.92619676  0.24433217  0.45094353    -0.05900
N205        N  0.89175882  0.23604739  0.42820613    -0.64000
N206        N  0.95277736  0.21199299  0.45312273    -0.06600
N207        N  0.93517872  0.18046639  0.43236050    -0.63600
N208        N  0.92398183  0.24805272  0.54230240    -0.05500
N209        N  0.89053359  0.24290585  0.56700045    -0.64300
Mn210      Mn  0.00700666  0.21211884  0.49968869     1.10700
C211        C  0.89846630  0.20633930  0.58523542     0.98700
C212        C  0.89704596  0.19633397  0.41665782     0.98700
N213        N  0.95717179  0.36982154  0.44502559    -0.06600
N214        N  0.95629283  0.38972792  0.41028191    -0.61900
N215        N  0.92560078  0.34461214  0.53956731    -0.05900
N216        N  0.90294020  0.34616573  0.57346519    -0.58700
N217        N  0.95575400  0.37411833  0.53888165    -0.07200
N218        N  0.95424522  0.39634582  0.57240711    -0.61500
N219        N  0.92708539  0.34029118  0.44549965    -0.06200
N220        N  0.90499399  0.33946274  0.41106740    -0.58700
Mn221      Mn  0.00740607  0.37360611  0.49249883     1.20200
Mn222      Mn  0.92496605  0.29467827  0.49451898     1.10100
Cl223      Cl  0.00727723  0.29294223  0.49629301    -0.86700
C224        C  0.92348348  0.37059000  0.38931948     0.95700
C225        C  0.92089328  0.37878230  0.59371964     0.95500
N226        N  0.05764144  0.61525366  0.45690687    -0.06800
N227        N  0.06120662  0.59158979  0.42470324    -0.58900
N228        N  0.08275699  0.64958044  0.54972356    -0.06500
N229        N  0.10384791  0.65106378  0.58459912    -0.61100
N230        N  0.05411003  0.61868750  0.54936003    -0.06100
N231        N  0.05526372  0.59837709  0.58389409    -0.58900
N232        N  0.08632824  0.64596998  0.45586839    -0.05800
N233        N  0.11009092  0.64390156  0.42254433    -0.61400
C234        C  0.09424941  0.60948511  0.40355786     0.95400
C235        C  0.08688007  0.61856563  0.60540832     0.95100
N236        N  0.05380401  0.77795390  0.54306773    -0.07000
N237        N  0.07132860  0.81156628  0.56068783    -0.59500
N238        N  0.08410811  0.74310510  0.45389179    -0.05100
N239        N  0.11874721  0.75092685  0.43122554    -0.60800
N240        N  0.05532619  0.77387812  0.45220450    -0.07000
N241        N  0.07136448  0.80393490  0.42880577    -0.59800
N242        N  0.08252147  0.74710541  0.54502157    -0.04800
N243        N  0.11849207  0.75878374  0.56456267    -0.60900
Mn244      Mn  0.08449494  0.69599262  0.50119850     1.18400
C245        C  0.11151148  0.79874528  0.57463516     0.97400
C246        C  0.11070963  0.78858747  0.41540385     0.98100
N247        N  0.95229982  0.61392489  0.54528092    -0.07100
N248        N  0.95045160  0.59286401  0.57925419    -0.63400
N249        N  0.92510614  0.64036748  0.45001232    -0.05900
N250        N  0.90559667  0.63997038  0.41437597    -0.64000
N251        N  0.95621013  0.61203408  0.45160453    -0.06600
N252        N  0.95841172  0.59167981  0.41696527    -0.63600
N253        N  0.92087329  0.64186069  0.54391143    -0.05500
N254        N  0.89665226  0.64029010  0.57694057    -0.64300
Mn255      Mn  0.00504571  0.61344134  0.50089803     1.10700
C256        C  0.91546203  0.60943329  0.59865391     0.98700
C257        C  0.92621941  0.60910195  0.39418088     0.98700
N258        N  0.94472881  0.76947743  0.44956798    -0.06600
N259        N  0.92751168  0.79779151  0.42481941    -0.61900
N260        N  0.91616389  0.73848722  0.54080301    -0.05900
N261        N  0.88169209  0.74389024  0.56415224    -0.58700
N262        N  0.94254547  0.77138356  0.54164401    -0.07200
N263        N  0.92506585  0.80025163  0.56562259    -0.61500
N264        N  0.91892509  0.73625615  0.44979496    -0.06200
N265        N  0.88532671  0.74070435  0.42507126    -0.58700
Mn266      Mn  0.99883757  0.77496793  0.49667082     1.20200
Mn267      Mn  0.91961650  0.68882019  0.49620134     1.10100
Cl268      Cl  0.00203820  0.69415274  0.49891979    -0.86700
C269        C  0.89062752  0.77880785  0.40924064     0.95700
C270        C  0.88734697  0.78203858  0.58002843     0.95500
C271        C  0.85105018  0.80229128  0.60321273    -0.20600
C272        C  0.81813223  0.77741926  0.62194968     0.35700
C273        C  0.77902272  0.79582854  0.63582428    -0.26500
C274        C  0.77237489  0.83891131  0.63364474     0.02100
C275        C  0.80719534  0.86437940  0.61848190     0.26900
C276        C  0.84553630  0.84565450  0.60259333    -0.24500
N277        N  0.82421887  0.73326406  0.62644636    -0.83100
H278        H  0.75322220  0.77620101  0.64832453     0.12700
C279        C  0.72933490  0.85552623  0.64888656     0.02100
N280        N  0.80575562  0.90906447  0.61991872    -0.81600
H281        H  0.87084853  0.86515927  0.58918018     0.17500
C282        C  0.71540379  0.84390293  0.68759491    -0.26500
C283        C  0.67617307  0.85903951  0.70407596     0.35600
C284        C  0.64960103  0.88701500  0.68168366    -0.20500
C285        C  0.66175079  0.89652211  0.64188714    -0.25700
C286        C  0.70113858  0.88061805  0.62505262     0.26900
H287        H  0.73585369  0.82353053  0.70574150     0.12700
N288        N  0.66421097  0.84515022  0.74366960    -0.83000
H289        H  0.64153512  0.91775343  0.62450064     0.17500
N290        N  0.71294736  0.89034406  0.58418762    -0.81600
H291        H  0.66616389  0.87002149  0.76391285     0.33200
H292        H  0.63174402  0.83372859  0.74281400     0.37700
H293        H  0.71293604  0.86246865  0.56784479     0.33100
H294        H  0.68899792  0.90936842  0.57094447     0.29800
H295        H  0.80316915  0.91990975  0.59032301     0.33100
H296        H  0.77838616  0.91985287  0.63589300     0.29800
H297        H  0.85122142  0.72887287  0.64577545     0.37700
H298        H  0.79685609  0.71952706  0.64047770     0.33200
C299        C  0.35986262  0.89924429  0.65962275    -0.20600
C300        C  0.33996804  0.92154025  0.62772083     0.35700
C301        C  0.29812883  0.90874654  0.61252657    -0.26500
C302        C  0.27603794  0.87370552  0.62817267     0.02100
C303        C  0.29782670  0.84935738  0.65755449     0.26900
C304        C  0.33877956  0.86299374  0.67366192    -0.25700
N305        N  0.36108956  0.95841890  0.61248526    -0.83100
H306        H  0.28223947  0.92663680  0.58895055     0.12700
C307        C  0.23133742  0.86129267  0.61220044     0.02100
N308        N  0.27896320  0.81029746  0.67015441    -0.81600
H309        H  0.35391042  0.84575247  0.69808530     0.17500
C310        C  0.22855254  0.84161319  0.57452549    -0.26500
C311        C  0.18831473  0.82454655  0.56038758     0.35600
C312        C  0.14995630  0.82621550  0.58478121    -0.20500
C313        C  0.15172180  0.84875449  0.62107678    -0.25700
C314        C  0.19197351  0.86696891  0.63474382     0.26900
H315        H  0.25829051  0.83839528  0.55661174     0.12700
N316        N  0.18645264  0.80423392  0.52167745    -0.83000
H317        H  0.12223500  0.85077355  0.63948183     0.17500
N318        N  0.19278677  0.89180711  0.67089516    -0.81600
H319        H  0.21725846  0.80555835  0.50744564     0.33200
H320        H  0.16446187  0.82095189  0.50351756     0.37700
H321        H  0.16105596  0.89369862  0.68328832     0.33100
H322        H  0.21255306  0.87701941  0.69231706     0.29800
H323        H  0.29987139  0.79552507  0.69076491     0.33100
H324        H  0.24948170  0.81619316  0.68542690     0.29800
H325        H  0.39076132  0.94931780  0.59899644     0.37700
H326        H  0.34185953  0.97173014  0.58968272     0.33200
C327        C  0.65766237  0.11115903  0.68928268    -0.20600
C328        C  0.68622934  0.13505337  0.71436708     0.35700
C329        C  0.72762256  0.14827319  0.69976755    -0.26500
C330        C  0.74112801  0.13896772  0.66034910     0.02100
C331        C  0.71201675  0.11647064  0.63474568     0.26900
C332        C  0.67059669  0.10275549  0.64948328    -0.25700
N333        N  0.67338598  0.14515474  0.75497839    -0.83100
H334        H  0.74969274  0.16582641  0.71934908     0.12700
C335        C  0.78464401  0.15525123  0.64565618     0.02100
N336        N  0.72479530  0.10737654  0.59396599    -0.81600
H337        H  0.64924092  0.08391914  0.63040108     0.17500
C338        C  0.81679530  0.12797153  0.63014952    -0.26500
C339        C  0.85622497  0.14320300  0.61241166     0.35600
C340        C  0.86390372  0.18659927  0.61096860    -0.20500
C341        C  0.83313643  0.21336023  0.62928324    -0.25700
C342        C  0.79351898  0.19836977  0.64593166     0.26900
H343        H  0.81032622  0.09477696  0.63061558     0.12700
N344        N  0.88719692  0.11490603  0.59449085    -0.83000
H345        H  0.83890069  0.24668311  0.62868419     0.17500
N346        N  0.76135797  0.22702838  0.66156049    -0.81600
H347        H  0.87716424  0.08410449  0.59920017     0.33200
H348        H  0.88635340  0.11961488  0.56330808     0.37700
H349        H  0.77295717  0.25767050  0.65963559     0.33100
H350        H  0.73324408  0.22512214  0.64311533     0.29800
H351        H  0.69995686  0.09035094  0.57919245     0.33100
H352        H  0.72771222  0.13568807  0.57870889     0.29800
H353        H  0.64561290  0.16438078  0.75325156     0.37700
H354        H  0.69818063  0.16239847  0.76957080     0.33200
C355        C  0.36915146  0.10740393  0.66173900    -0.20600
C356        C  0.35295865  0.14746285  0.67050230     0.35700
C357        C  0.31249724  0.16031645  0.65408330    -0.26500
C358        C  0.28702141  0.13351323  0.62962342     0.02100
C359        C  0.30448643  0.09435176  0.61868169     0.26900
C360        C  0.34561157  0.08180540  0.63469999    -0.25700
N361        N  0.37647675  0.17519507  0.69695418    -0.83100
H362        H  0.29998018  0.19087069  0.66175756     0.12700
C363        C  0.24154803  0.14629567  0.61717342     0.02100
N364        N  0.27944370  0.06670895  0.59305080    -0.81600
H365        H  0.35765155  0.05071236  0.62856537     0.17500
C366        C  0.23080490  0.14872472  0.57604256    -0.26500
C367        C  0.18916542  0.16322154  0.56329290     0.35600
C368        C  0.15733468  0.17496224  0.59226157    -0.20500
C369        C  0.16747888  0.17150104  0.63334544    -0.25700
C370        C  0.20925452  0.15714870  0.64615137     0.26900
H371        H  0.25561807  0.14080187  0.55381168     0.12700
N372        N  0.17986834  0.16845793  0.52101298    -0.83000
H373        H  0.14349024  0.18177889  0.65541951     0.17500
N374        N  0.21943388  0.15445023  0.68845639    -0.81600
H375        H  0.20703474  0.15941203  0.50359633     0.33200
H376        H  0.15381480  0.14837573  0.51343560     0.37700
H377        H  0.19242834  0.16401782  0.70576581     0.33100
H378        H  0.22471697  0.12310320  0.69520759     0.29800
H379        H  0.29691844  0.03922836  0.58787181     0.33100
H380        H  0.25061693  0.05833048  0.60849193     0.29800
H381        H  0.40827447  0.17971333  0.68527245     0.37700
H382        H  0.37947932  0.16114788  0.72521371     0.33200
C383        C  0.85363366  0.79786948  0.38579872    -0.20600
C384        C  0.84464042  0.84093905  0.38543917     0.35700
C385        C  0.80296982  0.85493964  0.37137589    -0.26500
C386        C  0.77028051  0.82678693  0.35754185     0.02100
C387        C  0.78040494  0.78401588  0.35592451     0.26900
C388        C  0.82195584  0.77030853  0.36925694    -0.25700
N389        N  0.87692499  0.87010289  0.40048289    -0.83100
H390        H  0.79579016  0.88794002  0.37145098     0.12700
C391        C  0.72626686  0.84225538  0.34325556     0.02100
N392        N  0.74786360  0.75436162  0.34202277    -0.81600
H393        H  0.82870633  0.73721344  0.36867056     0.17500
C394        C  0.71165344  0.83126703  0.30442047    -0.26500
C395        C  0.67154899  0.84624701  0.28879592     0.35600
C396        C  0.64575020  0.87398238  0.31189138    -0.20500
C397        C  0.65893516  0.88342920  0.35155400    -0.25700
C398        C  0.69886245  0.86752735  0.36761142     0.26900
H399        H  0.73227556  0.81169076  0.28568858     0.12700
N400        N  0.65748984  0.83451276  0.24882029    -0.83000
H401        H  0.63936168  0.90491057  0.36923353     0.17500
N402        N  0.71204492  0.87746169  0.40822048    -0.81600
H403        H  0.68015959  0.81412365  0.23566439     0.33200
H404        H  0.62770683  0.81803692  0.25155797     0.37700
H405        H  0.68847520  0.89648351  0.42198553     0.33100
H406        H  0.71258725  0.84966071  0.42452962     0.29800
H407        H  0.76059505  0.72415497  0.34247757     0.33100
H408        H  0.72150314  0.75482900  0.36237239     0.29800
H409        H  0.90422525  0.86892355  0.38119868     0.37700
H410        H  0.86472951  0.90044928  0.39886598     0.33200
C411        C  0.14651813  0.81153892  0.39410961    -0.20600
C412        C  0.15936071  0.85233265  0.40512820     0.35700
C413        C  0.20016881  0.86848000  0.39129127    -0.26500
C414        C  0.22829466  0.84479930  0.36656828     0.02100
C415        C  0.21450631  0.80478180  0.35415933     0.26900
C416        C  0.17411606  0.78850104  0.36833958    -0.25700
N417        N  0.13235069  0.87628440  0.43207373    -0.83100
H418        H  0.21048232  0.89951058  0.40026116     0.12700
C419        C  0.27063778  0.86330274  0.35161113     0.02100
N420        N  0.24169955  0.78075123  0.32736981    -0.81600
H421        H  0.16458019  0.75702457  0.36008605     0.17500
C422        C  0.31189248  0.84603322  0.36234941    -0.26500
C423        C  0.35206362  0.86203024  0.34647814     0.35600
C424        C  0.35060803  0.89518484  0.31870284    -0.20500
C425        C  0.30936888  0.91310611  0.30939533    -0.25700
C426        C  0.26963937  0.89756705  0.32532344     0.26900
H427        H  0.31262848  0.81979779  0.38280308     0.12700
N428        N  0.39376881  0.84368787  0.35709581    -0.83000
H429        H  0.30793143  0.93901849  0.28857910     0.17500
N430        N  0.22801517  0.91574884  0.31393976    -0.81600
H431        H  0.38894002  0.81894749  0.37706636     0.33200
H432        H  0.41216074  0.86617007  0.37279054     0.37700
H433        H  0.23294277  0.94099685  0.29461562     0.33100
H434        H  0.21020196  0.89338839  0.29751151     0.29800
H435        H  0.22698895  0.75184239  0.32134983     0.33100
H436        H  0.24315399  0.79654635  0.29986695     0.29800
H437        H  0.10285892  0.88301944  0.41688910     0.37700
H438        H  0.14745779  0.90489862  0.43855618     0.33200
C439        C  0.85840083  0.17251194  0.40047686    -0.20600
C440        C  0.86028798  0.13098372  0.38662763     0.35700
C441        C  0.82085531  0.11103683  0.37374015    -0.26500
C442        C  0.77989994  0.13187795  0.37428234     0.02100
C443        C  0.77823781  0.17334149  0.38759663     0.26900
C444        C  0.81711629  0.19294297  0.40063914    -0.25700
N445        N  0.90193019  0.10970059  0.38438173    -0.83100
H446        H  0.82205591  0.07934214  0.36257191     0.12700
C447        C  0.73984996  0.11245010  0.35601063     0.02100
N448        N  0.73714761  0.19584665  0.38681197    -0.81600
H449        H  0.81471655  0.22484730  0.41094108     0.17500
C450        C  0.70064676  0.10792775  0.37855475    -0.26500
C451        C  0.66074010  0.09436583  0.36022443     0.35600
C452        C  0.66023758  0.08532165  0.31853141    -0.20500
C453        C  0.69992348  0.08970043  0.29651193    -0.25700
C454        C  0.73939412  0.10301494  0.31465082     0.26900
H455        H  0.70111596  0.11571228  0.41037631     0.12700
N456        N  0.62117094  0.08980538  0.38374502    -0.83000
H457        H  0.70050698  0.08281536  0.26453479     0.17500
N458        N  0.77891529  0.10789117  0.29094087    -0.81600
H459        H  0.62752015  0.09692601  0.41402055     0.33200
H460        H  0.59848037  0.11186532  0.37344434     0.37700
H461        H  0.77326479  0.09893010  0.26101005     0.33100
H462        H  0.78691948  0.13958203  0.29039485     0.29800
H463        H  0.74145407  0.22604002  0.39805622     0.33100
H464        H  0.72753423  0.19893249  0.35663708     0.29800
H465        H  0.91255670  0.10413472  0.41389570     0.37700
H466        H  0.89774419  0.08045972  0.37092939     0.33200
C467        C  0.35749646  0.09352129  0.31891260    -0.20600
C468        C  0.32627038  0.11687364  0.29656238     0.35700
C469        C  0.28607767  0.12815732  0.31420601    -0.26500
C470        C  0.27656576  0.11875468  0.35444584     0.02100
C471        C  0.30801797  0.09661359  0.37755042     0.26900
C472        C  0.34819133  0.08381921  0.35940670    -0.25700
N473        N  0.33534789  0.12882721  0.25558289    -0.83100
H474        H  0.26210682  0.14542326  0.29659017     0.12700
C475        C  0.23544981  0.13679894  0.37194582     0.02100
N476        N  0.29903246  0.08721599  0.41908168    -0.81600
H477        H  0.37155355  0.06533086  0.37646249     0.17500
C478        C  0.20114015  0.11139137  0.38700011    -0.26500
C479        C  0.16089710  0.12889411  0.40086265     0.35600
C480        C  0.15509439  0.17251672  0.39922559    -0.20500
C481        C  0.18914964  0.19720837  0.38289432    -0.25700
C482        C  0.22927550  0.18016530  0.37033614     0.26900
H483        H  0.20569112  0.07797734  0.38769247     0.12700
N484        N  0.12681735  0.10276384  0.41741232    -0.83000
H485        H  0.18521679  0.23066253  0.38122205     0.17500
N486        N  0.26431340  0.20694106  0.35631540    -0.81600
H487        H  0.13685437  0.07166828  0.41740342     0.33200
H488        H  0.09940730  0.10445262  0.39813369     0.37700
H489        H  0.25454042  0.23810148  0.35677928     0.33100
H490        H  0.29073131  0.20437564  0.37663465     0.29800
H491        H  0.32535287  0.07070637  0.43178147     0.33100
H492        H  0.29716778  0.11543930  0.43474051     0.29800
H493        H  0.30884582  0.14537746  0.24322861     0.37700
H494        H  0.36247284  0.14916665  0.25613786     0.33200
C495        C  0.64196566  0.62640644  0.10141036    -0.20600
C496        C  0.66109800  0.65218146  0.13123706     0.35700
C497        C  0.64268888  0.69130067  0.13917184    -0.26500
C498        C  0.60562967  0.70519117  0.11765715     0.02100
C499        C  0.58370434  0.67783460  0.09078269     0.26900
C500        C  0.60205905  0.63836794  0.08295722    -0.25700
N501        N  0.70094762  0.63949017  0.15143112    -0.83100
H502        H  0.65922268  0.71226067  0.16008077     0.12700
C503        C  0.59469686  0.75008301  0.11953042     0.02100
N504        N  0.54427328  0.69114099  0.07022675    -0.81600
H505        H  0.58735998  0.61857455  0.05997763     0.17500
C506        C  0.60076541  0.77443219  0.08480887    -0.26500
C507        C  0.59708561  0.81802438  0.08632871     0.35600
C508        C  0.58736884  0.83739845  0.12333137    -0.20500
C509        C  0.58075186  0.81308032  0.15793811    -0.25700
C510        C  0.58404978  0.76952061  0.15635600     0.26900
H511        H  0.60989736  0.75941908  0.05675494     0.12700
N512        N  0.60512500  0.84273076  0.05099822    -0.83000
H513        H  0.57284612  0.82819053  0.18626860     0.17500
N514        N  0.57722442  0.74492179  0.19197369    -0.81600
H515        H  0.61366203  0.82371945  0.02662448     0.33200
H516        H  0.57536126  0.85711448  0.04313419     0.37700
H517        H  0.56982258  0.76399235  0.21661975     0.33100
H518        H  0.54935182  0.72615373  0.18689007     0.29800
H519        H  0.53242312  0.66760327  0.05115429     0.33100
H520        H  0.51993143  0.69590203  0.09209556     0.29800
H521        H  0.69343277  0.61282457  0.16812021     0.37700
H522        H  0.71125851  0.66219935  0.17212390     0.33200
C523        C  0.64588592  0.35562340  0.09233345    -0.20600
C524        C  0.61880759  0.33306997  0.06517879     0.35700
C525        C  0.60486597  0.29268067  0.07529237    -0.26500
C526        C  0.61748423  0.27453306  0.11197045     0.02100
C527        C  0.64141418  0.29839769  0.14052641     0.26900
C528        C  0.65602125  0.33862815  0.13014307    -0.25700
N529        N  0.60901801  0.34982006  0.02598265    -0.83100
H530        H  0.58654010  0.27426769  0.05339332     0.12700
C531        C  0.61002241  0.22922684  0.11767379     0.02100
N532        N  0.65215583  0.28099016  0.17921998    -0.81600
H533        H  0.67736611  0.35585328  0.15063957     0.17500
C534        C  0.64686077  0.20308992  0.12203873    -0.26500
C535        C  0.64180486  0.15965703  0.12470161     0.35600
C536        C  0.59897157  0.14205329  0.12234844    -0.20500
C537        C  0.56219039  0.16817388  0.11731037    -0.25700
C538        C  0.56725513  0.21163529  0.11544145     0.26900
H539        H  0.67977845  0.21667987  0.12278389     0.12700
N540        N  0.68006808  0.13341911  0.12810345    -0.83000
H541        H  0.52923148  0.15469861  0.11594423     0.17500
N542        N  0.52921123  0.23802902  0.11157752    -0.81600
H543        H  0.70912259  0.15115137  0.12623792     0.33200
H544        H  0.67998001  0.12046434  0.15697313     0.37700
H545        H  0.50026416  0.22015478  0.11027109     0.33100
H546        H  0.52721841  0.25607294  0.13780537     0.29800
H547        H  0.67002235  0.30247512  0.19664679     0.33100
H548        H  0.62234517  0.27558934  0.19433998     0.29800
H549        H  0.58906113  0.37595098  0.03017511     0.37700
H550        H  0.59036154  0.32859759  0.00893674     0.33200
C551        C  0.63725388  0.63213787  0.90374988    -0.20600
C552        C  0.61130382  0.65487502  0.93115855     0.35700
C553        C  0.59514623  0.69415102  0.92026016    -0.26500
C554        C  0.60464886  0.71125014  0.88228988     0.02100
C555        C  0.62739846  0.68684143  0.85356858     0.26900
C556        C  0.64414128  0.64773068  0.86485521    -0.25700
N557        N  0.60436002  0.63960429  0.97122612    -0.83100
H558        H  0.57795113  0.71255927  0.94266024     0.12700
C559        C  0.59643003  0.75637066  0.87534098     0.02100
N560        N  0.63497145  0.70270878  0.81367174    -0.81600
H561        H  0.66458041  0.63035979  0.84401106     0.17500
C562        C  0.63224595  0.78198631  0.86442729    -0.26500
C563        C  0.62749284  0.82527723  0.86074719     0.35600
C564        C  0.58605900  0.84365282  0.86882590    -0.20500
C565        C  0.55014167  0.81806445  0.87970568    -0.25700
C566        C  0.55475419  0.77457038  0.88250095     0.26900
H567        H  0.66449014  0.76819605  0.85969062     0.12700
N568        N  0.66481782  0.85060511  0.84947115    -0.83000
H569        H  0.51803864  0.83191164  0.88506568     0.17500
N570        N  0.51726738  0.74878287  0.89218477    -0.81600
H571        H  0.69256736  0.83215386  0.84384748     0.33200
H572        H  0.67283008  0.86958417  0.87411955     0.37700
H573        H  0.48915457  0.76700077  0.89664176     0.33100
H574        H  0.51066049  0.72986452  0.86713934     0.29800
H575        H  0.65248094  0.68114097  0.79635501     0.33100
H576        H  0.60406110  0.70622909  0.79981310     0.29800
H577        H  0.61751210  0.66135180  0.99156819     0.37700
H578        H  0.57022162  0.63771227  0.97612464     0.33200
C579        C  0.58321942  0.15045161  0.87209383    -0.20600
C580        C  0.58797630  0.17014213  0.90987979     0.35700
C581        C  0.59413025  0.21360176  0.91148675    -0.26500
C582        C  0.59509557  0.23766887  0.87609289     0.02100
C583        C  0.58890328  0.21793113  0.83841028     0.26900
C584        C  0.58336826  0.17453202  0.83681514    -0.25700
N585        N  0.58930945  0.14577260  0.94616378    -0.83100
H586        H  0.59988281  0.22858724  0.94036605     0.12700
C587        C  0.60754841  0.28249326  0.87870446     0.02100
N588        N  0.58890799  0.24202303  0.80190956    -0.81600
H589        H  0.57914755  0.15932875  0.80781782     0.17500
C590        C  0.64472091  0.29641574  0.85720464    -0.26500
C591        C  0.66232129  0.33636329  0.86351363     0.35600
C592        C  0.64265594  0.36287288  0.89216140    -0.20500
C593        C  0.60332860  0.35046534  0.91122472    -0.25700
C594        C  0.58558054  0.31032478  0.90484534     0.26900
H595        H  0.66172609  0.27515090  0.83720014     0.12700
N596        N  0.70188768  0.34928330  0.84291457    -0.83000
H597        H  0.58856467  0.37067453  0.93361713     0.17500
N598        N  0.54658757  0.29704310  0.92608164    -0.81600
H599        H  0.71278667  0.32594829  0.82333647     0.33200
H600        H  0.69370956  0.37485366  0.82497244     0.37700
H601        H  0.53474591  0.32099011  0.94445729     0.33100
H602        H  0.52194474  0.29092861  0.90459576     0.29800
H603        H  0.58427502  0.22280507  0.77674250     0.33100
H604        H  0.56171132  0.26201141  0.80300843     0.29800
H605        H  0.55802737  0.13239044  0.95014678     0.37700
H606        H  0.59493993  0.16488048  0.97125787     0.33200
C607        C  0.90398160  0.60038959  0.64091752    -0.20600
C608        C  0.93664633  0.58874066  0.66928849     0.35700
C609        C  0.92505377  0.58493502  0.70989704    -0.26500
C610        C  0.88135865  0.59062585  0.72270657     0.02100
C611        C  0.84840298  0.60110132  0.69430564     0.26900
C612        C  0.86027163  0.60665232  0.65373715    -0.25700
N613        N  0.98179113  0.58237267  0.65731527    -0.83100
H614        H  0.95038136  0.57750346  0.73185751     0.12700
C615        C  0.87144738  0.58592975  0.76617438     0.02100
N616        N  0.80315415  0.60586080  0.70672351    -0.81600
H617        H  0.83525607  0.61561314  0.63195189     0.17500
C618        C  0.85064724  0.61841936  0.78711868    -0.26500
C619        C  0.84408433  0.61623225  0.82901536     0.35600
C620        C  0.85944090  0.58112478  0.85026197    -0.20500
C621        C  0.87989574  0.54857908  0.82909670    -0.25700
C622        C  0.88547406  0.55033330  0.78732146     0.26900
H623        H  0.84045991  0.64599449  0.77087131     0.12700
N624        N  0.82249280  0.64964823  0.84994083    -0.83000
H625        H  0.89083814  0.52105491  0.84502168     0.17500
N626        N  0.90527612  0.51605539  0.76619490    -0.81600
H627        H  0.81257903  0.67272793  0.82969759     0.33200
H628        H  0.84582934  0.66339642  0.86924310     0.37700
H629        H  0.91479811  0.49276818  0.78631619     0.33100
H630        H  0.88103142  0.50315791  0.74726892     0.29800
H631        H  0.78313128  0.61377453  0.68213088     0.33100
H632        H  0.79201479  0.57689467  0.71691718     0.29800
H633        H  0.98260881  0.55474220  0.64063466     0.37700
H634        H  0.00185425  0.57731033  0.68256479     0.33200
C635        C  0.92133639  0.60282159  0.35021436    -0.20600
C636        C  0.92619233  0.56347807  0.33173342     0.35700
C637        C  0.92069957  0.55985984  0.28968303    -0.26500
C638        C  0.91075060  0.59476311  0.26598741     0.02100
C639        C  0.90728862  0.63420212  0.28438317     0.26900
C640        C  0.91207320  0.63772223  0.32628935    -0.25700
N641        N  0.93434862  0.52712449  0.35576010    -0.83100
H642        H  0.92321132  0.52960392  0.27548802     0.12700
C643        C  0.89994387  0.58954293  0.22261630     0.02100
N644        N  0.89866992  0.67048376  0.26031053    -0.81600
H645        H  0.90905420  0.66808472  0.34030920     0.17500
C646        C  0.85833067  0.60266547  0.20908593    -0.26500
C647        C  0.84621881  0.59980420  0.16836459     0.35600
C648        C  0.87600833  0.58206495  0.14049980    -0.20500
C649        C  0.91759362  0.56828382  0.15419446    -0.25700
C650        C  0.93003674  0.57221641  0.19495617     0.26900
H651        H  0.83508064  0.61539111  0.23061960     0.12700
N652        N  0.80319169  0.61366406  0.15576658    -0.83000
H653        H  0.94049536  0.55440721  0.13303463     0.17500
N654        N  0.97293888  0.55881116  0.20832581    -0.81600
H655        H  0.78446578  0.62276430  0.18069119     0.33200
H656        H  0.80778684  0.64047808  0.13843814     0.37700
H657        H  0.99092279  0.54629289  0.18432051     0.33100
H658        H  0.99031411  0.58522103  0.21811356     0.29800
H659        H  0.89678236  0.69708129  0.27844637     0.33100
H660        H  0.92574214  0.67478307  0.24115825     0.29800
H661        H  0.96668403  0.52935358  0.36689003     0.37700
H662        H  0.93335681  0.50034828  0.33778661     0.33200
C663        C  0.91025310  0.38862050  0.63645363    -0.20600
C664        C  0.93167110  0.42102032  0.65824002     0.35700
C665        C  0.92195360  0.42668933  0.69932115    -0.26500
C666        C  0.89159064  0.40080823  0.71916256     0.02100
C667        C  0.86970673  0.36898482  0.69749886     0.26900
C668        C  0.87905817  0.36339167  0.65641445    -0.25700
N669        N  0.96307494  0.44815135  0.63894047    -0.83100
H670        H  0.93851474  0.45121705  0.71613371     0.12700
C671        C  0.88289776  0.40732654  0.76268595     0.02100
N672        N  0.83860417  0.34205784  0.71750701    -0.81600
H673        H  0.86240968  0.33851145  0.64016401     0.17500
C674        C  0.83988679  0.41727817  0.77514242    -0.26500
C675        C  0.82995624  0.42266685  0.81616366     0.35600
C676        C  0.86386119  0.41787275  0.84516112    -0.20500
C677        C  0.90720393  0.40960415  0.83265743    -0.25700
C678        C  0.91704336  0.40378936  0.79164155     0.26900
H679        H  0.81406635  0.42102647  0.75267177     0.12700
N680        N  0.78620789  0.43489013  0.82825569    -0.83000
H681        H  0.93325620  0.40695777  0.85506490     0.17500
N682        N  0.96140993  0.39415451  0.77926950    -0.81600
H683        H  0.76604241  0.43962915  0.80299193     0.33200
H684        H  0.77212946  0.41007055  0.84404264     0.37700
H685        H  0.98260729  0.39296681  0.80425758     0.33100
H686        H  0.96095165  0.36431870  0.76662757     0.29800
H687        H  0.82518941  0.32034279  0.69725743     0.33100
H688        H  0.85605567  0.32511174  0.73918263     0.29800
H689        H  0.99177974  0.43093962  0.63378217     0.37700
H690        H  0.97246284  0.47240079  0.65831951     0.33200
C691        C  0.86707965  0.40765600  0.13764794    -0.20600
C692        C  0.87036828  0.36721218  0.15354368     0.35700
C693        C  0.87771491  0.36217037  0.19513289    -0.26500
C694        C  0.88109460  0.39684005  0.22089427     0.02100
C695        C  0.87663335  0.43724629  0.20495446     0.26900
C696        C  0.87037302  0.44226166  0.16335974    -0.25700
N697        N  0.86719433  0.33162207  0.12731732    -0.83100
H698        H  0.88153239  0.33118504  0.20745322     0.12700
C699        C  0.89089732  0.39060771  0.26426818     0.02100
N700        N  0.87803920  0.47293099  0.23116848    -0.81600
H701        H  0.86705891  0.47332535  0.15103526     0.17500
C702        C  0.92877371  0.40939493  0.28089573    -0.26500
C703        C  0.94031970  0.40350088  0.32149366     0.35600
C704        C  0.91270192  0.37878692  0.34635504    -0.20500
C705        C  0.87459888  0.36018324  0.32955696    -0.25700
C706        C  0.86338158  0.36587943  0.28879567     0.26900
H707        H  0.94998829  0.42808299  0.26176447     0.12700
N708        N  0.98054113  0.42166465  0.33697188    -0.83000
H709        H  0.85333431  0.34114222  0.34830352     0.17500
N710        N  0.82404577  0.34693984  0.27226457    -0.81600
H711        H  0.99588912  0.44013153  0.31513985     0.33200
H712        H  0.00228004  0.39717961  0.34284591     0.37700
H713        H  0.80755470  0.32952966  0.29423555     0.33100
H714        H  0.80263899  0.37087358  0.26377413     0.29800
H715        H  0.87367050  0.50027241  0.21465635     0.33100
H716        H  0.85110209  0.47076180  0.25079379     0.29800
H717        H  0.89409599  0.33277181  0.10757021     0.37700
H718        H  0.87035924  0.30410450  0.14382538     0.33200
C719        C  0.40281056  0.84612688  0.85959391    -0.20600
C720        C  0.38937022  0.82027876  0.82714530     0.35700
C721        C  0.38067643  0.77791966  0.83416794    -0.26500
C722        C  0.38429928  0.76076042  0.87291226     0.02100
C723        C  0.39850226  0.78636198  0.90521318     0.26900
C724        C  0.40830437  0.82858677  0.89804724    -0.25700
N725        N  0.38493434  0.83685468  0.78709045    -0.83100
H726        H  0.37032894  0.75814142  0.80930134     0.12700
C727        C  0.36938118  0.71702627  0.87960311     0.02100
N728        N  0.40203438  0.76964454  0.94526846    -0.81600
H729        H  0.41907394  0.84820049  0.92288531     0.17500
C730        C  0.39737690  0.68813071  0.89866769    -0.26500
C731        C  0.38186372  0.64807562  0.90923382     0.35600
C732        C  0.33778806  0.63672985  0.89978460    -0.20500
C733        C  0.31132227  0.66448396  0.87789918    -0.25700
C734        C  0.32607936  0.70467556  0.86857709     0.26900
H735        H  0.43081357  0.69743974  0.90667151     0.12700
N736        N  0.40954832  0.62029793  0.93184883    -0.83000
H737        H  0.27744735  0.65585230  0.87082558     0.17500
N738        N  0.29625331  0.73381004  0.85009650    -0.81600
H739        H  0.44032505  0.63413088  0.93776244     0.33200
H740        H  0.41565383  0.59438478  0.91360351     0.37700
H741        H  0.26564628  0.71976764  0.84388787     0.33100
H742        H  0.29023084  0.75746352  0.87105922     0.29800
H743        H  0.41329198  0.79241979  0.96550739     0.33100
H744        H  0.37018670  0.76121937  0.95452168     0.29800
H745        H  0.41653248  0.84560779  0.77735109     0.37700
H746        H  0.37372568  0.81391126  0.76704237     0.33200
C747        C  0.40631730  0.14826231  0.87372239    -0.20600
C748        C  0.43334242  0.17192385  0.90046165     0.35700
C749        C  0.42488013  0.21463356  0.90583670    -0.26500
C750        C  0.38923182  0.23403562  0.88632825     0.02100
C751        C  0.36171549  0.21010442  0.86067827     0.26900
C752        C  0.37073482  0.16787078  0.85431300    -0.25700
N753        N  0.46977173  0.15306446  0.92147442    -0.83100
H754        H  0.44628101  0.23294302  0.92537358     0.12700
C755        C  0.38018470  0.27899023  0.89364838     0.02100
N756        N  0.32402884  0.22841596  0.84141231    -0.81600
H757        H  0.34949150  0.15031482  0.83400009     0.17500
C758        C  0.37338527  0.30568221  0.86056907    -0.26500
C759        C  0.35767520  0.34644261  0.86611127     0.35600
C760        C  0.35085245  0.36126726  0.90543695    -0.20500
C761        C  0.36166491  0.33616165  0.93855433    -0.25700
C762        C  0.37538171  0.29487771  0.93320624     0.26900
H763        H  0.37823561  0.29395405  0.83024720     0.12700
N764        N  0.34627634  0.37195088  0.83213646    -0.83000
H765        H  0.35544302  0.34765949  0.96879955     0.17500
N766        N  0.38174235  0.26848313  0.96772195    -0.81600
H767        H  0.35260188  0.35616006  0.80515520     0.33200
H768        H  0.36721259  0.39795963  0.83266487     0.37700
H769        H  0.37680564  0.28509281  0.99449467     0.33100
H770        H  0.35736460  0.24527571  0.96677447     0.29800
H771        H  0.32763278  0.22486260  0.81023587     0.33100
H772        H  0.29579418  0.21184581  0.85020866     0.29800
H773        H  0.45644153  0.13247693  0.94261952     0.37700
H774        H  0.48750020  0.17537955  0.93803930     0.33200
C775        C  0.35279225  0.62832870  0.09384394    -0.20600
C776        C  0.35032516  0.64676743  0.13222781     0.35700
C777        C  0.36763911  0.68702980  0.13809354    -0.26500
C778        C  0.38485708  0.71002568  0.10562050     0.02100
C779        C  0.38925620  0.69054778  0.06753881     0.26900
C780        C  0.37408487  0.64947062  0.06239059    -0.25700
N781        N  0.32791986  0.62546055  0.16434616    -0.83100
H782        H  0.36519799  0.70154880  0.16753161     0.12700
C783        C  0.39407549  0.75532185  0.11095495     0.02100
N784        N  0.40613422  0.71337748  0.03358859    -0.81600
H785        H  0.37488852  0.63539620  0.03263371     0.17500
C786        C  0.43463368  0.77206553  0.09818547    -0.26500
C787        C  0.44319430  0.81506404  0.10027393     0.35600
C788        C  0.41142592  0.84174343  0.11790633    -0.20500
C789        C  0.37117442  0.82483398  0.13127808    -0.25700
C790        C  0.36164916  0.78222782  0.12699733     0.26900
H791        H  0.45954590  0.75150424  0.08593886     0.12700
N792        N  0.48429735  0.83128485  0.08511358    -0.83000
H793        H  0.34657710  0.84513734  0.14446629     0.17500
N794        N  0.31881604  0.76633857  0.13817601    -0.81600
H795        H  0.50445185  0.80710449  0.07495447     0.33200
H796        H  0.47692163  0.84904970  0.05960670     0.37700
H797        H  0.29890726  0.79011375  0.14959312     0.33100
H798        H  0.30328817  0.75549852  0.11190175     0.29800
H799        H  0.40690451  0.69459046  0.00779562     0.33100
H800        H  0.38391610  0.73742848  0.02749734     0.29800
H801        H  0.34590625  0.59855181  0.17079637     0.37700
H802        H  0.32818799  0.64358621  0.19058638     0.33200
C803        C  0.41865118  0.14638787  0.12222833    -0.20600
C804        C  0.41844196  0.16474459  0.08357500     0.35700
C805        C  0.41089238  0.20787075  0.07987152    -0.26500
C806        C  0.40416860  0.23305524  0.11406318     0.02100
C807        C  0.40675393  0.21487156  0.15275156     0.26900
C808        C  0.41323247  0.17175491  0.15635961    -0.25700
N809        N  0.42428243  0.13939661  0.04822202    -0.83100
H810        H  0.40841122  0.22156718  0.05012280     0.12700
C811        C  0.38857011  0.27674763  0.10890266     0.02100
N812        N  0.40231495  0.24030944  0.18824163    -0.81600
H813        H  0.41446196  0.15788564  0.18610691     0.17500
C814        C  0.34849553  0.28815958  0.12696204    -0.26500
C815        C  0.32919996  0.32693492  0.11985058     0.35600
C816        C  0.34932529  0.35481342  0.09232771    -0.20500
C817        C  0.39092795  0.34472386  0.07613780    -0.25700
C818        C  0.41075701  0.30596407  0.08436528     0.26900
H819        H  0.33105885  0.26613348  0.14593946     0.12700
N820        N  0.28831890  0.33626240  0.14006480    -0.83000
H821        H  0.40668985  0.36568191  0.05495724     0.17500
N822        N  0.45283734  0.29603088  0.06712809    -0.81600
H823        H  0.29413572  0.33388463  0.17108030     0.33200
H824        H  0.27899095  0.36713221  0.13553376     0.37700
H825        H  0.45006752  0.29820536  0.03576261     0.33100
H826        H  0.47578082  0.31844236  0.07680378     0.29800
H827        H  0.40466922  0.22219866  0.21432116     0.33100
H828        H  0.42909735  0.26105574  0.18885986     0.29800
H829        H  0.39725967  0.11898598  0.04635425     0.37700
H830        H  0.42343675  0.15768875  0.02218755     0.33200
C831        C  0.09341985  0.61308600  0.64913709    -0.20600
C832        C  0.09385424  0.57347354  0.66743576     0.35700
C833        C  0.09726903  0.57077739  0.70965062    -0.26500
C834        C  0.09943528  0.60674756  0.73376285     0.02100
C835        C  0.09914474  0.64625914  0.71531981     0.26900
C836        C  0.09678511  0.64894753  0.67319630    -0.25700
N837        N  0.09214963  0.53625840  0.64325850    -0.83100
H838        H  0.09839865  0.54050570  0.72388231     0.12700
C839        C  0.10409698  0.60255051  0.77812780     0.02100
N840        N  0.10059762  0.68348560  0.73948640    -0.81600
H841        H  0.09602462  0.67935412  0.65913203     0.17500
C842        C  0.13989850  0.62211617  0.79750229    -0.26500
C843        C  0.14684450  0.61790458  0.83912482     0.35600
C844        C  0.11830645  0.59185901  0.86172111    -0.20500
C845        C  0.08173555  0.57311048  0.84239312    -0.25700
C846        C  0.07397194  0.57870649  0.80095758     0.26900
H847        H  0.16299801  0.64040303  0.77986301     0.12700
N848        N  0.18353887  0.63907634  0.85799239    -0.83000
H849        H  0.05934290  0.55358907  0.85953846     0.17500
N850        N  0.03567234  0.56039734  0.78196029    -0.81600
H851        H  0.20212916  0.65541443  0.83663978     0.33200
H852        H  0.17044882  0.66147477  0.87746101     0.37700
H853        H  0.01668581  0.54403402  0.80300948     0.33100
H854        H  0.01593509  0.58479232  0.77164190     0.29800
H855        H  0.10045730  0.70997930  0.72122555     0.33100
H856        H  0.07157546  0.68435863  0.75655676     0.29800
H857        H  0.06064325  0.53419190  0.63030752     0.37700
H858        H  0.09536478  0.50990432  0.66144484     0.33200
C859        C  0.12428271  0.56838727  0.15041366    -0.20600
C860        C  0.12911380  0.53385272  0.17621066     0.35700
C861        C  0.12437277  0.53944683  0.21787342    -0.26500
C862        C  0.11426557  0.57864320  0.23382567     0.02100
C863        C  0.10887846  0.61303873  0.20798430     0.26900
C864        C  0.11470423  0.60767070  0.16635487    -0.25700
N865        N  0.13998982  0.49359865  0.16011175    -0.83100
H866        H  0.12871176  0.51330560  0.23809439     0.12700
C867        C  0.11044430  0.58350568  0.27784877     0.02100
N868        N  0.09752700  0.65310664  0.22423060    -0.81600
H869        H  0.11132021  0.63400056  0.14622200     0.17500
C870        C  0.14204083  0.60824981  0.29792119    -0.26500
C871        C  0.13910174  0.61572438  0.33954923     0.35600
C872        C  0.10354203  0.59819411  0.36126341    -0.20500
C873        C  0.07322296  0.57187184  0.34131021    -0.25700
C874        C  0.07594116  0.56445591  0.29996562     0.26900
H875        H  0.16885155  0.62210592  0.28083960     0.12700
N876        N  0.17167589  0.64129680  0.35955656    -0.83000
H877        H  0.04572597  0.55816884  0.35754394     0.17500
N878        N  0.04174279  0.53940062  0.28154639    -0.81600
H879        H  0.19516922  0.65222923  0.33898529     0.33200
H880        H  0.18866914  0.62238773  0.37996826     0.37700
H881        H  0.04395629  0.50937320  0.29335797     0.33100
H882        H  0.04574058  0.53665927  0.25047013     0.29800
H883        H  0.09495808  0.67511271  0.20114975     0.33100
H884        H  0.06607792  0.65047360  0.23708133     0.29800
H885        H  0.17138945  0.49577620  0.14707274     0.37700
H886        H  0.14251176  0.47171240  0.18328654     0.33200
C887        C  0.12823639  0.41607808  0.84720852    -0.20600
C888        C  0.15835711  0.39328160  0.82302939     0.35700
C889        C  0.15065477  0.38990263  0.78146637    -0.26500
C890        C  0.11430460  0.40925556  0.76354585     0.02100
C891        C  0.08453468  0.43226867  0.78707828     0.26900
C892        C  0.09171983  0.43544935  0.82882108    -0.25700
N893        N  0.19697037  0.37415216  0.84031316    -0.83100
H894        H  0.17328315  0.37232793  0.76276029     0.12700
C895        C  0.10747924  0.40423149  0.71995172     0.02100
N896        N  0.04715924  0.45206218  0.76838817    -0.81600
H897        H  0.06877428  0.45321931  0.84697957     0.17500
C898        C  0.07540176  0.37583924  0.70644887    -0.26500
C899        C  0.06953281  0.36837900  0.66516610     0.35600
C900        C  0.09646017  0.38972934  0.63737138    -0.20500
C901        C  0.12800893  0.41869837  0.65072848    -0.25700
C902        C  0.13379900  0.42623035  0.69213139     0.26900
H903        H  0.05543285  0.35913236  0.72823517     0.12700
N904        N  0.03710544  0.33860625  0.65129362    -0.83000
H905        H  0.14818969  0.43512156  0.62891466     0.17500
N906        N  0.16641785  0.45566513  0.70618037    -0.81600
H907        H  0.02064412  0.32511327  0.67571265     0.33200
H908        H  0.01315100  0.35472881  0.63481087     0.37700
H909        H  0.18280532  0.46932996  0.68180102     0.33100
H910        H  0.14971122  0.47961403  0.72102450     0.29800
H911        H  0.02804823  0.46739406  0.78998170     0.33100
H912        H  0.05928562  0.47487037  0.74882803     0.29800
H913        H  0.21858824  0.39807002  0.84907102     0.37700
H914        H  0.21390789  0.35670940  0.81866905     0.33200
C915        C  0.11765640  0.38877236  0.13491137    -0.20600
C916        C  0.14438484  0.36075186  0.15696737     0.35700
C917        C  0.13635824  0.35493906  0.19822681    -0.26500
C918        C  0.10145946  0.37533031  0.21760746     0.02100
C919        C  0.07239364  0.40033639  0.19498238     0.26900
C920        C  0.08092690  0.40701936  0.15390107    -0.25700
N921        N  0.18043128  0.33931412  0.13798249    -0.83100
H922        H  0.15838514  0.33543815  0.21571482     0.12700
C923        C  0.09789264  0.37253735  0.26204707     0.02100
N924        N  0.03494194  0.41946130  0.21408637    -0.81600
H925        H  0.05961405  0.42774510  0.13704931     0.17500
C926        C  0.09905162  0.40937271  0.28496108    -0.26500
C927        C  0.09780089  0.40816366  0.32723395     0.35600
C928        C  0.09629435  0.36936865  0.34677160    -0.20500
C929        C  0.09575811  0.33251405  0.32399882    -0.25700
C930        C  0.09570027  0.33371192  0.28171217     0.26900
H931        H  0.10131695  0.43913403  0.26977094     0.12700
N932        N  0.09820290  0.44603724  0.35042841    -0.83000
H933        H  0.09359281  0.30276548  0.33924064     0.17500
N934        N  0.09256856  0.29583603  0.25864921    -0.81600
H935        H  0.09974324  0.47189355  0.33143692     0.33200
H936        H  0.12733811  0.44645812  0.36758149     0.37700
H937        H  0.09108910  0.27001293  0.27773734     0.33100
H938        H  0.06258768  0.29647776  0.24277446     0.29800
H939        H  0.01698126  0.43718008  0.19336329     0.33100
H940        H  0.01386641  0.39555331  0.22367760     0.29800
H941        H  0.16673568  0.31875713  0.11679913     0.37700
H942        H  0.19738117  0.32092750  0.15887553     0.33200
loop_ 
_geom_bond_atom_site_label_1 
_geom_bond_atom_site_label_2 
_geom_bond_distance 
_geom_bond_site_symmetry_2 
_ccdc_geom_bond_type 
N1            N2   1.328       .  A
N1            N7   1.319       .  A
N1          Mn30   2.231   1_554  S
N2            C9   1.359       .  A
N3            N5   1.318       .  A
N3            N4   1.314       .  A
N3          Mn19   2.185       .  S
N4           C10   1.345       .  A
N5            N6   1.325       .  A
N5          Mn30   2.215       .  S
N6           C10   1.356       .  A
N7            N8   1.315       .  A
N7          Mn19   2.189   1_554  S
N8            C9   1.347       .  A
C9          C816   1.481       .  S
C10         C760   1.466       .  S
N11          N17   1.312       .  A
N11          N12   1.321       .  A
N11         Mn41   2.189       .  S
N12          C20   1.355       .  A
N13          N14   1.319       .  A
N13          N15   1.312       .  A
N13         Mn19   2.196   1_554  S
N14          C21   1.354       .  A
N15          N16   1.319       .  A
N15         Mn41   2.188   1_554  S
N16          C21   1.353       .  A
N17          N18   1.315       .  A
N17         Mn19   2.182       .  S
N18          C20   1.349       .  A
Mn19        Cl43   2.498       .  S
C20         C887   1.481       .  S
C21         C915   1.484       .  S
N22          N23   1.328       .  A
N22          N28   1.318       .  A
N22         Mn30   2.230       .  S
N23          C31   1.360       .  A
N24          N26   1.320       .  A
N24          N25   1.316       .  A
N24         Mn42   2.196       .  S
N25          C32   1.347       .  A
N26          N27   1.324       .  A
N26         Mn30   2.215   1_554  S
N27          C32   1.354       .  A
N28          N29   1.312       .  A
N28         Mn42   2.182   1_556  S
N29          C31   1.345       .  A
Mn30        Cl43   2.586       .  S
C31         C732   1.480       .  S
C32         C775   1.468       .  S
N33          N34   1.318       .  A
N33          N39   1.314       .  A
N33         Mn41   2.184   1_554  S
N34          C44   1.350       .  A
N35          N36   1.318       .  A
N35          N37   1.312       .  A
N35         Mn42   2.195   1_556  S
N36          C45   1.353       .  A
N37          N38   1.320       .  A
N37         Mn41   2.184       .  S
N38          C45   1.353       .  A
N39          N40   1.319       .  A
N39         Mn42   2.194       .  S
N40          C44   1.351       .  A
Mn41        Cl43   2.575       .  S
Mn42        Cl43   2.502   1_554  S
C44         C859   1.463       .  S
C45         C844   1.484       .  S
N46          N47   1.317       .  A
N46          N52   1.313       .  A
N46         Mn75   2.178   1_554  S
N47          C54   1.349       .  A
N48          N50   1.312       .  A
N48          N49   1.321       .  A
N48         Mn64   2.197       .  S
N49          C55   1.352       .  A
N50          N51   1.320       .  A
N50         Mn75   2.183       .  S
N51          C55   1.349       .  A
N52          N53   1.321       .  A
N52         Mn64   2.198   1_554  S
N53          C54   1.352       .  A
C54         C691   1.469       .  S
C55         C676   1.471       .  S
N56          N62   1.318       .  A
N56          N57   1.326       .  A
N56         Mn86   2.222       .  S
N57          C65   1.358       .  A
N58          N59   1.316       .  A
N58          N60   1.319       .  A
N58         Mn64   2.192   1_554  S
N59          C66   1.346       .  A
N60          N61   1.325       .  A
N60         Mn86   2.226   1_554  S
N61          C66   1.357       .  A
N62          N63   1.313       .  A
N62         Mn64   2.182       .  S
N63          C65   1.345       .  A
Mn64        Cl88   2.505       .  S
C65         C592   1.473       .  S
C66         C523   1.471       .  S
N67          N68   1.314       .  A
N67          N73   1.313       .  A
N67         Mn75   2.170       .  S
N68          C76   1.348       .  A
N69          N71   1.312       .  A
N69          N70   1.319       .  A
N69         Mn87   2.209   1_554  S
N70          C77   1.355       .  A
N71          N72   1.318       .  A
N71         Mn75   2.171   1_554  S
N72          C77   1.350       .  A
N73          N74   1.322       .  A
N73         Mn87   2.201       .  S
N74          C76   1.354       .  A
Mn75        Cl88   2.580       .  S
C76         C620   1.475       .  S
C77         C648   1.481       .  S
N78          N79   1.326       .  A
N78          N84   1.320       .  A
N78         Mn86   2.222   1_554  S
N79          C89   1.356       .  A
N80          N81   1.316       .  A
N80          N82   1.319       .  A
N80         Mn87   2.196       .  S
N81          C90   1.347       .  A
N82          N83   1.325       .  A
N82         Mn86   2.221       .  S
N83          C90   1.356       .  A
N84          N85   1.315       .  A
N84         Mn87   2.196   1_554  S
N85          C89   1.347       .  A
Mn86        Cl88   2.576       .  S
Mn87        Cl88   2.503       .  S
C89         C495   1.476       .  S
C90         C551   1.471       .  S
N91          N92   1.333       .  A
N91          N97   1.320       .  A
N91        Mn120   2.254   1_545  S
N92          C99   1.364       .  A
N93          N95   1.321       .  A
N93          N94   1.313       .  A
N93        Mn109   2.189       .  S
N94         C100   1.344       .  A
N95          N96   1.332       .  A
N95        Mn120   2.255       .  S
N96         C100   1.363       .  A
N97          N98   1.310       .  A
N97        Mn109   2.172   1_545  S
N98          C99   1.341       .  A
C99         C467   1.488       .  S
C100        C424   1.492       .  S
N101        N107   1.312       .  A
N101        N102   1.319       .  A
N101       Mn131   2.183       .  S
N102        C110   1.351       .  A
N103        N104   1.321       .  A
N103        N105   1.313       .  A
N103       Mn109   2.207   1_545  S
N104        C111   1.353       .  A
N105        N106   1.323       .  A
N105       Mn131   2.198   1_545  S
N106        C111   1.353       .  A
N107        N108   1.321       .  A
N107       Mn109   2.197       .  S
N108        C110   1.354       .  A
Mn109      Cl133   2.482       .  S
C110        C788   1.484       .  S
C111        C803   1.484       .  S
N112        N113   1.330       .  A
N112        N118   1.320       .  A
N112       Mn120   2.247       .  S
N113        C121   1.362       .  A
N114        N116   1.320       .  A
N114        N115   1.309       .  A
N114       Mn132   2.165   1_545  S
N115        C122   1.341       .  A
N116        N117   1.332       .  A
N116       Mn120   2.259   1_545  S
N117        C122   1.365       .  A
N118        N119   1.313       .  A
N118       Mn132   2.183       .  S
N119        C121   1.344       .  A
Mn120      Cl133   2.604       .  S
C121        C396   1.484       .  S
C122        C452   1.492       .  S
N123        N124   1.320       .  A
N123        N129   1.312       .  A
N123       Mn131   2.185   1_545  S
N124        C134   1.352       .  A
N125        N126   1.318       .  A
N125        N127   1.312       .  A
N125       Mn132   2.180       .  S
N126        C135   1.348       .  A
N127        N128   1.322       .  A
N127       Mn131   2.201       .  S
N128        C135   1.353       .  A
N129        N130   1.320       .  A
N129       Mn132   2.199   1_545  S
N130        C134   1.352       .  A
Mn131      Cl133   2.601       .  S
Mn132      Cl133   2.485       .  S
C134        C536   1.478       .  S
C135        C508   1.472       .  S
N136        N137   1.319       .  A
N136        N142   1.313       .  A
N136       Mn165   2.185   1_545  S
N137        C144   1.351       .  A
N138        N140   1.314       .  A
N138        N139   1.321       .  A
N138       Mn154   2.206   1_565  S
N139        C145   1.353       .  A
N140        N141   1.322       .  A
N140       Mn165   2.192       .  S
N141        C145   1.352       .  A
N142        N143   1.322       .  A
N142       Mn154   2.210       .  S
N143        C144   1.356       .  A
C144        C747   1.488       .  S
C145        C719   1.485       .  S
N146        N152   1.321       .  A
N146        N147   1.333       .  A
N146       Mn176   2.271   1_565  S
N147        C155   1.365       .  A
N148        N149   1.316       .  A
N148        N150   1.321       .  A
N148       Mn154   2.198       .  S
N149        C156   1.346       .  A
N150        N151   1.327       .  A
N150       Mn176   2.231       .  S
N151        C156   1.357       .  A
N152        N153   1.317       .  A
N152       Mn154   2.190   1_565  S
N153        C155   1.344       .  A
Mn154      Cl178   2.500   1_545  S
C155        C299   1.492       .  S
C156        C355   1.474       .  S
N157        N158   1.322       .  A
N157        N163   1.312       .  A
N157       Mn165   2.198       .  S
N158        C166   1.354       .  A
N159        N161   1.313       .  A
N159        N160   1.319       .  A
N159       Mn177   2.191   1_545  S
N160        C167   1.350       .  A
N161        N162   1.324       .  A
N161       Mn165   2.203   1_545  S
N162        C167   1.353       .  A
N163        N164   1.320       .  A
N163       Mn177   2.189       .  S
N164        C166   1.351       .  A
Mn165      Cl178   2.583       .  S
C166        C564   1.484       .  S
C167        C579   1.478       .  S
N168        N169   1.332       .  A
N168        N174   1.318       .  A
N168       Mn176   2.269       .  S
N169        C179   1.366       .  A
N170        N171   1.312       .  A
N170        N172   1.319       .  A
N170       Mn177   2.176       .  S
N171        C180   1.343       .  A
N172        N173   1.329       .  A
N172       Mn176   2.242   1_565  S
N173        C180   1.362       .  A
N174        N175   1.312       .  A
N174       Mn177   2.164   1_545  S
N175        C179   1.341       .  A
Mn176      Cl178   2.600   1_545  S
Mn177      Cl178   2.498       .  S
C179        C327   1.488       .  S
C180        C284   1.482       .  S
N181        N182   1.332       .  A
N181        N187   1.318       .  A
N181       Mn210   2.244       .  S
N182        C189   1.364       .  A
N183        N185   1.321       .  A
N183        N184   1.315       .  A
N183       Mn199   2.184       .  S
N184        C190   1.343       .  A
N185        N186   1.328       .  A
N185       Mn210   2.244       .  S
N186        C190   1.359       .  A
N187        N188   1.310       .  A
N187       Mn199   2.179       .  S
N188        C189   1.344       .  A
C189        C480   1.491       .  S
C190        C368   1.475       .  S
N191        N197   1.312       .  A
N191        N192   1.317       .  A
N191       Mn221   2.173       .  S
N192        C200   1.348       .  A
N193        N194   1.319       .  A
N193        N195   1.313       .  A
N193       Mn199   2.189       .  S
N194        C201   1.350       .  A
N195        N196   1.319       .  A
N195       Mn221   2.183       .  S
N196        C201   1.350       .  A
N197        N198   1.319       .  A
N197       Mn199   2.193       .  S
N198        C200   1.351       .  A
Mn199      Cl223   2.483       .  S
C200        C900   1.457       .  S
C201        C928   1.467       .  S
N202        N203   1.331       .  A
N202        N208   1.319       .  A
N202       Mn210   2.249   1_655  S
N203        C211   1.364       .  A
N204        N206   1.318       .  A
N204        N205   1.308       .  A
N204       Mn222   2.166       .  S
N205        C212   1.342       .  A
N206        N207   1.331       .  A
N206       Mn210   2.246   1_655  S
N207        C212   1.364       .  A
N208        N209   1.313       .  A
N208       Mn222   2.183       .  S
N209        C211   1.345       .  A
Mn210      Cl223   2.599       .  S
C211        C340   1.491       .  S
C212        C439   1.490       .  S
N213        N214   1.319       .  A
N213        N219   1.310       .  A
N213       Mn221   2.185   1_655  S
N214        C224   1.352       .  A
N215        N216   1.319       .  A
N215        N217   1.311       .  A
N215       Mn222   2.189       .  S
N216        C225   1.353       .  A
N217        N218   1.321       .  A
N217       Mn221   2.194   1_655  S
N218        C225   1.354       .  A
N219        N220   1.320       .  A
N219       Mn222   2.192       .  S
N220        C224   1.354       .  A
Mn221      Cl223   2.595       .  S
Mn222      Cl223   2.487   1_655  S
C224        C704   1.484       .  S
C225        C663   1.487       .  S
N226        N227   1.314       .  A
N226        N232   1.310       .  A
N226       Mn255   2.161       .  S
N227        C234   1.349       .  A
N228        N230   1.313       .  A
N228        N229   1.319       .  A
N228       Mn244   2.197       .  S
N229        C235   1.353       .  A
N230        N231   1.320       .  A
N230       Mn255   2.187       .  S
N231        C235   1.352       .  A
N232        N233   1.321       .  A
N232       Mn244   2.198       .  S
N233        C234   1.355       .  A
C234        C872   1.476       .  S
C235        C831   1.473       .  S
N236        N242   1.322       .  A
N236        N237   1.333       .  A
N236       Mn266   2.260   1_455  S
N237        C245   1.363       .  A
N238        N239   1.314       .  A
N238        N240   1.321       .  A
N238       Mn244   2.182       .  S
N239        C246   1.343       .  A
N240        N241   1.331       .  A
N240       Mn266   2.259   1_455  S
N241        C246   1.364       .  A
N242        N243   1.315       .  A
N242       Mn244   2.191       .  S
N243        C245   1.344       .  A
Mn244      Cl268   2.491       .  S
C245        C312   1.492       .  S
C246        C411   1.487       .  S
N247        N248   1.317       .  A
N247        N253   1.310       .  A
N247       Mn255   2.172   1_655  S
N248        C256   1.350       .  A
N249        N251   1.312       .  A
N249        N250   1.318       .  A
N249       Mn267   2.188       .  S
N250        C257   1.351       .  A
N251        N252   1.322       .  A
N251       Mn255   2.197   1_655  S
N252        C257   1.353       .  A
N253        N254   1.320       .  A
N253       Mn267   2.189       .  S
N254        C256   1.353       .  A
Mn255      Cl268   2.596       .  S
C256        C607   1.474       .  S
C257        C635   1.478       .  S
N258        N259   1.333       .  A
N258        N264   1.318       .  A
N258       Mn266   2.262       .  S
N259        C269   1.366       .  A
N260        N261   1.311       .  A
N260        N262   1.320       .  A
N260       Mn267   2.176       .  S
N261        C270   1.342       .  A
N262        N263   1.332       .  A
N262       Mn266   2.268       .  S
N263        C270   1.366       .  A
N264        N265   1.311       .  A
N264       Mn267   2.168       .  S
N265        C269   1.342       .  A
Mn266      Cl268   2.600   1_655  S
Mn267      Cl268   2.495   1_655  S
C269        C383   1.493       .  S
C270        C271   1.492       .  S
C271        C272   1.418       .  A
C271        C276   1.404       .  A
C272        C273   1.402       .  A
C272        N277   1.439       .  S
C273        C274   1.402       .  A
C273        H278   1.084       .  S
C274        C279   1.497       .  S
C274        C275   1.423       .  A
C275        C276   1.411       .  A
C275        N280   1.437       .  S
C276        H281   1.083       .  S
N277        H297   1.046       .  S
N277        H298   1.046       .  S
C279        C282   1.403       .  A
C279        C286   1.416       .  A
N280        H295   1.045       .  S
N280        H296   1.043       .  S
C282        C283   1.396       .  A
C282        H287   1.084       .  S
C283        C284   1.417       .  A
C283        N288   1.434       .  S
C284        C285   1.405       .  A
C285        C286   1.413       .  A
C285        H289   1.083       .  S
C286        N290   1.437       .  S
N288        H291   1.043       .  S
N288        H292   1.045       .  S
N290        H293   1.046       .  S
N290        H294   1.045       .  S
C299        C300   1.413       .  A
C299        C304   1.406       .  A
C300        C301   1.417       .  A
C300        N305   1.436       .  S
C301        C302   1.407       .  A
C301        H306   1.083       .  S
C302        C307   1.500       .  S
C302        C303   1.414       .  A
C303        C304   1.412       .  A
C303        N308   1.439       .  S
C304        H309   1.083       .  S
N305        H325   1.046       .  S
N305        H326   1.045       .  S
C307        C310   1.400       .  A
C307        C314   1.419       .  A
N308        H323   1.045       .  S
N308        H324   1.044       .  S
C310        C311   1.409       .  A
C310        H315   1.084       .  S
C311        C312   1.416       .  A
C311        N316   1.439       .  S
C312        C313   1.403       .  A
C313        C314   1.419       .  A
C313        H317   1.083       .  S
C314        N318   1.438       .  S
N316        H319   1.045       .  S
N316        H320   1.046       .  S
N318        H321   1.046       .  S
N318        H322   1.043       .  S
C327        C328   1.418       .  A
C327        C332   1.403       .  A
C328        C329   1.406       .  A
C328        N333   1.439       .  S
C329        C330   1.402       .  A
C329        H334   1.084       .  S
C330        C335   1.495       .  S
C330        C331   1.414       .  A
C331        C332   1.413       .  A
C331        N336   1.437       .  S
C332        H337   1.083       .  S
N333        H353   1.046       .  S
N333        H354   1.046       .  S
C335        C338   1.409       .  A
C335        C342   1.410       .  A
N336        H351   1.046       .  S
N336        H352   1.045       .  S
C338        C339   1.415       .  A
C338        H343   1.083       .  S
C339        C340   1.413       .  A
C339        N344   1.437       .  S
C340        C341   1.407       .  A
C341        C342   1.403       .  A
C341        H345   1.084       .  S
C342        N346   1.439       .  S
N344        H347   1.046       .  S
N344        H348   1.045       .  S
N346        H349   1.045       .  S
N346        H350   1.046       .  S
C355        C356   1.409       .  A
C355        C360   1.404       .  A
C356        C357   1.400       .  A
C356        N361   1.433       .  S
C357        C358   1.406       .  A
C357        H362   1.084       .  S
C358        C363   1.492       .  S
C358        C359   1.414       .  A
C359        C360   1.410       .  A
C359        N364   1.438       .  S
C360        H365   1.084       .  S
N361        H381   1.046       .  S
N361        H382   1.045       .  S
C363        C366   1.403       .  A
C363        C370   1.416       .  A
N364        H379   1.045       .  S
N364        H380   1.046       .  S
C366        C367   1.407       .  A
C366        H371   1.084       .  S
C367        C368   1.413       .  A
C367        N372   1.439       .  S
C368        C369   1.400       .  A
C369        C370   1.410       .  A
C369        H373   1.084       .  S
C370        N374   1.438       .  S
N372        H375   1.047       .  S
N372        H376   1.044       .  S
N374        H377   1.046       .  S
N374        H378   1.045       .  S
C383        C384   1.412       .  A
C383        C388   1.409       .  A
C384        C385   1.416       .  A
C384        N389   1.436       .  S
C385        C386   1.410       .  A
C385        H390   1.083       .  S
C386        C391   1.497       .  S
C386        C387   1.410       .  A
C387        C388   1.402       .  A
C387        N392   1.439       .  S
C388        H393   1.084       .  S
N389        H409   1.046       .  S
N389        H410   1.045       .  S
C391        C394   1.403       .  A
C391        C398   1.416       .  A
N392        H407   1.046       .  S
N392        H408   1.045       .  S
C394        C395   1.403       .  A
C394        H399   1.083       .  S
C395        C396   1.412       .  A
C395        N400   1.439       .  S
C396        C397   1.404       .  A
C397        C398   1.415       .  A
C397        H401   1.083       .  S
C398        N402   1.437       .  S
N400        H403   1.046       .  S
N400        H404   1.046       .  S
N402        H405   1.046       .  S
N402        H406   1.045       .  S
C411        C412   1.412       .  A
C411        C416   1.407       .  A
C412        C413   1.413       .  A
C412        N417   1.436       .  S
C413        C414   1.407       .  A
C413        H418   1.083       .  S
C414        C419   1.494       .  S
C414        C415   1.409       .  A
C415        C416   1.407       .  A
C415        N420   1.438       .  S
C416        H421   1.084       .  S
N417        H437   1.045       .  S
N417        H438   1.046       .  S
C419        C422   1.411       .  A
C419        C426   1.406       .  A
N420        H435   1.046       .  S
N420        H436   1.046       .  S
C422        C423   1.418       .  A
C422        H427   1.083       .  S
C423        C424   1.411       .  A
C423        N428   1.436       .  S
C424        C425   1.408       .  A
C425        C426   1.403       .  A
C425        H429   1.084       .  S
C426        N430   1.438       .  S
N428        H431   1.046       .  S
N428        H432   1.045       .  S
N430        H433   1.045       .  S
N430        H434   1.046       .  S
C439        C440   1.411       .  A
C439        C444   1.412       .  A
C440        C441   1.414       .  A
C440        N445   1.436       .  S
C441        C442   1.410       .  A
C441        H446   1.083       .  S
C442        C447   1.485       .  S
C442        C443   1.403       .  A
C443        C444   1.396       .  A
C443        N448   1.439       .  S
C444        H449   1.082       .  S
N445        H465   1.045       .  S
N445        H466   1.046       .  S
C447        C450   1.409       .  A
C447        C454   1.403       .  A
N448        H463   1.046       .  S
N448        H464   1.046       .  S
C450        C451   1.414       .  A
C450        H455   1.084       .  S
C451        C452   1.412       .  A
C451        N456   1.436       .  S
C452        C453   1.412       .  A
C453        C454   1.398       .  A
C453        H457   1.083       .  S
C454        N458   1.439       .  S
N456        H459   1.046       .  S
N456        H460   1.045       .  S
N458        H461   1.046       .  S
N458        H462   1.045       .  S
C467        C468   1.416       .  A
C467        C472   1.408       .  A
C468        C469   1.398       .  A
C468        N473   1.440       .  S
C469        C470   1.399       .  A
C469        H474   1.084       .  S
C470        C475   1.492       .  S
C470        C471   1.414       .  A
C471        C472   1.418       .  A
C471        N476   1.437       .  S
C472        H477   1.083       .  S
N473        H493   1.046       .  S
N473        H494   1.045       .  S
C475        C478   1.409       .  A
C475        C482   1.408       .  A
N476        H491   1.046       .  S
N476        H492   1.046       .  S
C478        C479   1.419       .  A
C478        H483   1.083       .  S
C479        C480   1.414       .  A
C479        N484   1.436       .  S
C480        C481   1.406       .  A
C481        C482   1.397       .  A
C481        H485   1.084       .  S
C482        N486   1.439       .  S
N484        H487   1.045       .  S
N484        H488   1.046       .  S
N486        H489   1.045       .  S
N486        H490   1.046       .  S
C495        C496   1.409       .  A
C495        C500   1.405       .  A
C496        C497   1.402       .  A
C496        N501   1.436       .  S
C497        C498   1.400       .  A
C497        H502   1.084       .  S
C498        C503   1.482       .  S
C498        C499   1.411       .  A
C499        C500   1.410       .  A
C499        N504   1.437       .  S
C500        H505   1.083       .  S
N501        H521   1.045       .  S
N501        H522   1.046       .  S
C503        C506   1.405       .  A
C503        C510   1.409       .  A
N504        H519   1.045       .  S
N504        H520   1.046       .  S
C506        C507   1.406       .  A
C506        H511   1.084       .  S
C507        C508   1.407       .  A
C507        N512   1.437       .  S
C508        C509   1.404       .  A
C509        C510   1.404       .  A
C509        H513   1.084       .  S
C510        N514   1.437       .  S
N512        H515   1.045       .  S
N512        H516   1.045       .  S
N514        H517   1.045       .  S
N514        H518   1.046       .  S
C523        C524   1.410       .  A
C523        C528   1.402       .  A
C524        C525   1.404       .  A
C524        N529   1.438       .  S
C525        C526   1.402       .  A
C525        H530   1.084       .  S
C526        C531   1.484       .  S
C526        C527   1.411       .  A
C527        C528   1.408       .  A
C527        N532   1.437       .  S
C528        H533   1.084       .  S
N529        H549   1.045       .  S
N529        H550   1.046       .  S
C531        C534   1.404       .  A
C531        C538   1.409       .  A
N532        H547   1.046       .  S
N532        H548   1.046       .  S
C534        C535   1.406       .  A
C534        H539   1.084       .  S
C535        C536   1.411       .  A
C535        N540   1.438       .  S
C536        C537   1.405       .  A
C537        C538   1.405       .  A
C537        H541   1.084       .  S
C538        N542   1.437       .  S
N540        H543   1.046       .  S
N540        H544   1.045       .  S
N542        H545   1.044       .  S
N542        H546   1.046       .  S
C551        C552   1.407       .  A
C551        C556   1.400       .  A
C552        C553   1.403       .  A
C552        N557   1.433       .  S
C553        C554   1.405       .  A
C553        H558   1.084       .  S
C554        C559   1.490       .  S
C554        C555   1.414       .  A
C555        C556   1.408       .  A
C555        N560   1.437       .  S
C556        H561   1.084       .  S
N557        H577   1.046       .  S
N557        H578   1.046       .  S
C559        C562   1.405       .  A
C559        C566   1.411       .  A
N560        H575   1.046       .  S
N560        H576   1.046       .  S
C562        C563   1.405       .  A
C562        H567   1.084       .  S
C563        C564   1.412       .  A
C563        N568   1.438       .  S
C564        C565   1.406       .  A
C565        C566   1.408       .  A
C565        H569   1.084       .  S
C566        N570   1.437       .  S
N568        H571   1.046       .  S
N568        H572   1.045       .  S
N570        H573   1.044       .  S
N570        H574   1.046       .  S
C579        C580   1.408       .  A
C579        C584   1.404       .  A
C580        C581   1.408       .  A
C580        N585   1.437       .  S
C581        C582   1.407       .  A
C581        H586   1.084       .  S
C582        C587   1.489       .  S
C582        C583   1.411       .  A
C583        C584   1.404       .  A
C583        N588   1.438       .  S
C584        H589   1.084       .  S
N585        H605   1.045       .  S
N585        H606   1.045       .  S
C587        C590   1.404       .  A
C587        C594   1.413       .  A
N588        H603   1.045       .  S
N588        H604   1.046       .  S
C590        C591   1.402       .  A
C590        H595   1.083       .  S
C591        C592   1.409       .  A
C591        N596   1.438       .  S
C592        C593   1.404       .  A
C593        C594   1.409       .  A
C593        H597   1.084       .  S
C594        N598   1.438       .  S
N596        H599   1.046       .  S
N596        H600   1.046       .  S
N598        H601   1.045       .  S
N598        H602   1.046       .  S
C607        C608   1.413       .  A
C607        C612   1.403       .  A
C608        C609   1.398       .  A
C608        N613   1.437       .  S
C609        C610   1.400       .  A
C609        H614   1.082       .  S
C610        C615   1.481       .  S
C610        C611   1.410       .  A
C611        C612   1.405       .  A
C611        N616   1.437       .  S
C612        H617   1.084       .  S
N613        H633   1.045       .  S
N613        H634   1.045   1_655  S
C615        C618   1.404       .  A
C615        C622   1.409       .  A
N616        H631   1.046       .  S
N616        H632   1.045       .  S
C618        C619   1.406       .  A
C618        H623   1.083       .  S
C619        C620   1.411       .  A
C619        N624   1.437       .  S
C620        C621   1.405       .  A
C621        C622   1.397       .  A
C621        H625   1.084       .  S
C622        N626   1.438       .  S
N624        H627   1.046       .  S
N624        H628   1.046       .  S
N626        H629   1.044       .  S
N626        H630   1.046       .  S
C635        C636   1.412       .  A
C635        C640   1.404       .  A
C636        C637   1.408       .  A
C636        N641   1.437       .  S
C637        C638   1.404       .  A
C637        H642   1.082       .  S
C638        C643   1.482       .  S
C638        C639   1.409       .  A
C639        C640   1.400       .  A
C639        N644   1.439       .  S
C640        H645   1.084       .  S
N641        H661   1.045       .  S
N641        H662   1.045       .  S
C643        C646   1.400       .  A
C643        C650   1.409       .  A
N644        H659   1.045       .  S
N644        H660   1.046       .  S
C646        C647   1.400       .  A
C646        H651   1.084       .  S
C647        C648   1.413       .  A
C647        N652   1.437       .  S
C648        C649   1.408       .  A
C649        C650   1.406       .  A
C649        H653   1.084       .  S
C650        N654   1.436       .  S
N652        H655   1.045       .  S
N652        H656   1.046       .  S
N654        H657   1.046       .  S
N654        H658   1.046       .  S
C663        C664   1.417       .  A
C663        C668   1.408       .  A
C664        C665   1.406       .  A
C664        N669   1.438       .  S
C665        C666   1.401       .  A
C665        H670   1.083       .  S
C666        C671   1.482       .  S
C666        C667   1.408       .  A
C667        C668   1.403       .  A
C667        N672   1.439       .  S
C668        H673   1.083       .  S
N669        H689   1.045       .  S
N669        H690   1.046       .  S
C671        C674   1.403       .  A
C671        C678   1.411       .  A
N672        H687   1.046       .  S
N672        H688   1.045       .  S
C674        C675   1.404       .  A
C674        H679   1.084       .  S
C675        C676   1.411       .  A
C675        N680   1.438       .  S
C676        C677   1.401       .  A
C677        C678   1.405       .  A
C677        H681   1.084       .  S
C678        N682   1.438       .  S
N680        H683   1.046       .  S
N680        H684   1.044       .  S
N682        H685   1.046       .  S
N682        H686   1.045       .  S
C691        C692   1.407       .  A
C691        C696   1.402       .  A
C692        C693   1.406       .  A
C692        N697   1.437       .  S
C693        C694   1.405       .  A
C693        H698   1.084       .  S
C694        C699   1.481       .  S
C694        C695   1.410       .  A
C695        C696   1.401       .  A
C695        N700   1.437       .  S
C696        H701   1.084       .  S
N697        H717   1.046       .  S
N697        H718   1.046       .  S
C699        C702   1.401       .  A
C699        C706   1.409       .  A
N700        H715   1.045       .  S
N700        H716   1.046       .  S
C702        C703   1.403       .  A
C702        H707   1.084       .  S
C703        C704   1.417       .  A
C703        N708   1.437       .  S
C704        C705   1.406       .  A
C705        C706   1.405       .  A
C705        H709   1.083       .  S
C706        N710   1.438       .  S
N708        H711   1.045       .  S
N708        H712   1.045   1_655  S
N710        H713   1.046       .  S
N710        H714   1.046       .  S
C719        C720   1.414       .  A
C719        C724   1.405       .  A
C720        C721   1.405       .  A
C720        N725   1.438       .  S
C721        C722   1.403       .  A
C721        H726   1.084       .  S
C722        C727   1.491       .  S
C722        C723   1.413       .  A
C723        C724   1.408       .  A
C723        N728   1.437       .  S
C724        H729   1.084       .  S
N725        H745   1.046       .  S
N725        H746   1.045       .  S
C727        C730   1.408       .  A
C727        C734   1.411       .  A
N728        H743   1.046       .  S
N728        H744   1.045       .  S
C730        C731   1.413       .  A
C730        H735   1.083       .  S
C731        C732   1.412       .  A
C731        N736   1.437       .  S
C732        C733   1.402       .  A
C733        C734   1.400       .  A
C733        H737   1.083       .  S
C734        N738   1.439       .  S
N736        H739   1.046       .  S
N736        H740   1.045       .  S
N738        H741   1.046       .  S
N738        H742   1.046       .  S
C747        C748   1.419       .  A
C747        C752   1.403       .  A
C748        C749   1.408       .  A
C748        N753   1.437       .  S
C749        C750   1.403       .  A
C749        H754   1.084       .  S
C750        C755   1.491       .  S
C750        C751   1.410       .  A
C751        C752   1.401       .  A
C751        N756   1.433       .  S
C752        H757   1.084       .  S
N753        H773   1.045       .  S
N753        H774   1.046       .  S
C755        C758   1.409       .  A
C755        C762   1.414       .  A
N756        H771   1.046       .  S
N756        H772   1.046       .  S
C758        C759   1.407       .  A
C758        H763   1.083       .  S
C759        C760   1.403       .  A
C759        N764   1.436       .  S
C760        C761   1.403       .  A
C761        C762   1.403       .  A
C761        H765   1.085       .  S
C762        N766   1.439       .  S
N764        H767   1.046       .  S
N764        H768   1.045       .  S
N766        H769   1.046       .  S
N766        H770   1.045       .  S
C775        C776   1.405       .  A
C775        C780   1.402       .  A
C776        C777   1.406       .  A
C776        N781   1.437       .  S
C777        C778   1.407       .  A
C777        H782   1.083       .  S
C778        C783   1.490       .  S
C778        C779   1.415       .  A
C779        C780   1.405       .  A
C779        N784   1.438       .  S
C780        H785   1.084       .  S
N781        H801   1.045       .  S
N781        H802   1.046       .  S
C783        C786   1.402       .  A
C783        C790   1.414       .  A
N784        H799   1.046       .  S
N784        H800   1.046       .  S
C786        C787   1.406       .  A
C786        H791   1.083       .  S
C787        C788   1.417       .  A
C787        N792   1.437       .  S
C788        C789   1.403       .  A
C789        C790   1.404       .  A
C789        H793   1.084       .  S
C790        N794   1.438       .  S
N792        H795   1.045       .  S
N792        H796   1.045       .  S
N794        H797   1.045       .  S
N794        H798   1.046       .  S
C803        C804   1.412       .  A
C803        C808   1.403       .  A
C804        C805   1.411       .  A
C804        N809   1.437       .  S
C805        C806   1.407       .  A
C805        H810   1.083       .  S
C806        C811   1.493       .  S
C806        C807   1.413       .  A
C807        C808   1.405       .  A
C807        N812   1.438       .  S
C808        H813   1.084       .  S
N809        H829   1.046       .  S
N809        H830   1.046       .  S
C811        C814   1.402       .  A
C811        C818   1.412       .  A
N812        H827   1.046       .  S
N812        H828   1.045       .  S
C814        C815   1.398       .  A
C814        H819   1.084       .  S
C815        C816   1.417       .  A
C815        N820   1.439       .  S
C816        C817   1.407       .  A
C817        C818   1.411       .  A
C817        H821   1.084       .  S
C818        N822   1.432       .  S
N820        H823   1.045       .  S
N820        H824   1.043       .  S
N822        H825   1.045       .  S
N822        H826   1.046       .  S
C831        C832   1.411       .  A
C831        C836   1.403       .  A
C832        C833   1.406       .  A
C832        N837   1.438       .  S
C833        C834   1.405       .  A
C833        H838   1.083       .  S
C834        C839   1.483       .  S
C834        C835   1.410       .  A
C835        C836   1.401       .  A
C835        N840   1.438       .  S
C836        H841   1.084       .  S
N837        H857   1.044       .  S
N837        H858   1.045       .  S
C839        C842   1.401       .  A
C839        C846   1.410       .  A
N840        H855   1.046       .  S
N840        H856   1.045       .  S
C842        C843   1.402       .  A
C842        H847   1.084       .  S
C843        C844   1.416       .  A
C843        N848   1.438       .  S
C844        C845   1.407       .  A
C845        C846   1.405       .  A
C845        H849   1.083       .  S
C846        N850   1.437       .  S
N848        H851   1.046       .  S
N848        H852   1.045       .  S
N850        H853   1.046       .  S
N850        H854   1.045       .  S
C859        C860   1.410       .  A
C859        C864   1.399       .  A
C860        C861   1.400       .  A
C860        N865   1.438       .  S
C861        C862   1.400       .  A
C861        H866   1.084       .  S
C862        C867   1.472       .  S
C862        C863   1.410       .  A
C863        C864   1.402       .  A
C863        N868   1.438       .  S
C864        H869   1.084       .  S
N865        H885   1.046       .  S
N865        H886   1.046       .  S
C867        C870   1.404       .  A
C867        C874   1.414       .  A
N868        H883   1.046       .  S
N868        H884   1.045       .  S
C870        C871   1.403       .  A
C870        H875   1.084       .  S
C871        C872   1.411       .  A
C871        N876   1.438       .  S
C872        C873   1.406       .  A
C873        C874   1.393       .  A
C873        H877   1.083       .  S
C874        N878   1.439       .  S
N876        H879   1.046       .  S
N876        H880   1.045       .  S
N878        H881   1.044       .  S
N878        H882   1.041       .  S
C887        C888   1.420       .  A
C887        C892   1.407       .  A
C888        C889   1.400       .  A
C888        N893   1.439       .  S
C889        C890   1.396       .  A
C889        H894   1.084       .  S
C890        C895   1.467       .  S
C890        C891   1.404       .  A
C891        C892   1.403       .  A
C891        N896   1.437       .  S
C892        H897   1.083       .  S
N893        H913   1.046       .  S
N893        H914   1.046       .  S
C895        C898   1.399       .  A
C895        C902   1.409       .  A
N896        H911   1.045       .  S
N896        H912   1.045       .  S
C898        C899   1.399       .  A
C898        H903   1.084       .  S
C899        C900   1.408       .  A
C899        N904   1.439       .  S
C900        C901   1.398       .  A
C901        C902   1.403       .  A
C901        H905   1.084       .  S
C902        N906   1.437       .  S
N904        H907   1.045       .  S
N904        H908   1.045       .  S
N906        H909   1.046       .  S
N906        H910   1.045       .  S
C915        C916   1.415       .  A
C915        C920   1.407       .  A
C916        C917   1.403       .  A
C916        N921   1.437       .  S
C917        C918   1.401       .  A
C917        H922   1.084       .  S
C918        C923   1.480       .  S
C918        C919   1.409       .  A
C919        C920   1.404       .  A
C919        N924   1.438       .  S
C920        H925   1.083       .  S
N921        H941   1.045       .  S
N921        H942   1.046       .  S
C923        C926   1.405       .  A
C923        C930   1.410       .  A
N924        H939   1.045       .  S
N924        H940   1.046       .  S
C926        C927   1.403       .  A
C926        H931   1.084       .  S
C927        C928   1.407       .  A
C927        N932   1.438       .  S
C928        C929   1.403       .  A
C929        C930   1.402       .  A
C929        H933   1.084       .  S
C930        N934   1.438       .  S
N932        H935   1.045       .  S
N932        H936   1.046       .  S
N934        H937   1.046       .  S
N934        H938   1.046       .  S
