geometry optimzed in LAMMPS
_audit_creation_date              2020-11-30 
_audit_creation_method            'lammps2cif' 
_symmetry_space_group_name_H-M    'P1' 
_symmetry_Int_Tables_number       1 
_symmetry_cell_setting            triclinic 
loop_ 
_symmetry_equiv_pos_as_xyz 
  x,y,z 
_cell_length_a                    36.28334146 
_cell_length_b                    36.373464190513104 
_cell_length_c                    42.895873706472116 
_cell_angle_alpha                 90.29365337469282 
_cell_angle_beta                  90.00477035251504 
_cell_angle_gamma                 89.99239379208156 
loop_ 
_atom_site_label 
_atom_site_type_symbol 
_atom_site_fract_x 
_atom_site_fract_y 
_atom_site_fract_z 
_atom_site_charge 
C1          C  0.96151736  0.88540499  0.70370781     0.03400
C2          C  0.99391861  0.90597017  0.71001100    -0.12700
C3          C  0.02895689  0.88888633  0.70931169     0.00900
C4          C  0.03113198  0.85110671  0.70273322    -0.11300
C5          C  0.99937609  0.83048416  0.69734397     0.03400
C6          C  0.96504278  0.84770580  0.69692557    -0.10700
H7          H  0.99199777  0.93472585  0.71637076     0.09000
H8          H  0.05763024  0.83734286  0.70236282     0.06500
H9          H  0.94077950  0.83111218  0.69248451     0.06400
C10         C  0.03051614  0.61561619  0.71209863     0.03400
C11         C  0.99667442  0.59726557  0.71642314    -0.12700
C12         C  0.96334005  0.61718250  0.71538439     0.00900
C13         C  0.96414496  0.65496543  0.70900493    -0.11300
C14         C  0.99760843  0.67293140  0.70415421     0.03400
C15         C  0.03052988  0.65326693  0.70539041    -0.10700
H16         H  0.99635145  0.56814864  0.72158738     0.09000
H17         H  0.93870534  0.67061371  0.70848318     0.06500
H18         H  0.05639673  0.66763523  0.70202772     0.06400
C19         C  0.52418337  0.88784927  0.70952561     0.03400
C20         C  0.49064918  0.90752405  0.70982890    -0.12700
C21         C  0.45671247  0.88867634  0.71275436     0.00900
C22         C  0.45705412  0.85015343  0.71536569    -0.11300
C23         C  0.49016529  0.83060516  0.71526637     0.03400
C24         C  0.52349653  0.84947876  0.71235723    -0.10700
H25         H  0.49105191  0.93710821  0.70720232     0.09000
H26         H  0.43142821  0.83522780  0.71821929     0.06500
H27         H  0.54914459  0.83416855  0.71261799     0.06400
C28         C  0.45831350  0.61508761  0.73778841     0.03400
C29         C  0.45801548  0.65281947  0.73090022    -0.12700
C30         C  0.49077021  0.67288376  0.72912095     0.00900
C31         C  0.52444168  0.65498658  0.73326045    -0.11300
C32         C  0.52587413  0.61713981  0.73884651     0.03400
C33         C  0.49263091  0.59704936  0.74115400    -0.10700
H34         H  0.43206324  0.66690162  0.72728109     0.09000
H35         H  0.54982259  0.67058473  0.73148364     0.06500
H36         H  0.49350142  0.56782634  0.74581951     0.06400
In37       In  0.24243502  0.98041095  0.71803488     1.36900
C38         C  0.23870610  0.00129051  0.77725159     0.77900
O39         O  0.18158032  0.98934928  0.71235113    -0.60600
O40         O  0.20122647  0.93463540  0.71845194    -0.51500
C41         C  0.24741223  0.00543035  0.66014269     0.70500
O42         O  0.24175355  0.02692928  0.68309903    -0.46300
C43         C  0.30968479  0.95185659  0.71868868     0.75200
O44         O  0.24579847  0.02415462  0.75577398    -0.58200
O45         O  0.28092607  0.93248513  0.71524287    -0.48300
O46         O  0.23373329  0.96870205  0.76806952    -0.54600
C47         C  0.17367289  0.95568095  0.71513622     0.85400
O48         O  0.25063400  0.97197494  0.66721663    -0.56500
O49         O  0.30372495  0.98567336  0.72338395    -0.59800
In50       In  0.24425683  0.52674029  0.72060716     1.36900
C51         C  0.23738333  0.50214612  0.77827320     0.77900
O52         O  0.30486096  0.51742674  0.72512655    -0.60600
O53         O  0.28482419  0.57240572  0.72893348    -0.51500
C54         C  0.25060231  0.50846785  0.66111551     0.70500
O55         O  0.24253482  0.48476318  0.68171316    -0.46300
C56         C  0.17669982  0.55270395  0.71450296     0.75200
O57         O  0.24632813  0.48076675  0.75598576    -0.58200
O58         O  0.20421124  0.57324481  0.72013129    -0.48300
O59         O  0.23004367  0.53462272  0.77034632    -0.54600
C60         C  0.31246033  0.55101480  0.72923262     0.85400
O61         O  0.25650199  0.54051990  0.67146620    -0.56500
O62         O  0.18409360  0.51893334  0.71116844    -0.59800
In63       In  0.74235062  0.96857774  0.71021781     1.36900
C64         C  0.74799096  0.99019768  0.76937255     0.77900
O65         O  0.68232456  0.97643649  0.71981466    -0.60600
O66         O  0.70024640  0.92347011  0.70477300    -0.51500
C67         C  0.73504848  0.99787257  0.65383617     0.70500
O68         O  0.74367446  0.01724495  0.67743008    -0.46300
C69         C  0.81011701  0.94027809  0.70602803     0.75200
O70         O  0.74266124  0.01289848  0.74744662    -0.58200
O71         O  0.78177344  0.92046475  0.71000274    -0.48300
O72         O  0.75088022  0.95712229  0.76069176    -0.54600
C73         C  0.67341646  0.94404875  0.71227320     0.85400
O74         O  0.73055350  0.96418103  0.65944317    -0.56500
O75         O  0.80322075  0.97407966  0.70276547    -0.59800
In76       In  0.74492435  0.54162124  0.73021015     1.36900
C77         C  0.73957682  0.52263275  0.67092042     0.77900
O78         O  0.68464690  0.53154118  0.73285804    -0.60600
O79         O  0.70355692  0.58706315  0.73716127    -0.51500
C80         C  0.75026999  0.51886450  0.78829979     0.70500
O81         O  0.74247329  0.49656623  0.76634277    -0.46300
C82         C  0.81415723  0.56335974  0.72502744     0.75200
O83         O  0.74589814  0.49906208  0.69206098    -0.58200
O84         O  0.78796852  0.58590993  0.72978960    -0.48300
O85         O  0.73506406  0.55525823  0.68057627    -0.54600
C86         C  0.67639112  0.56502139  0.73669213     0.85400
O87         O  0.75612809  0.55151793  0.77991593    -0.56500
O88         O  0.80455616  0.53006221  0.72248390    -0.59800
C89         C  0.35620877  0.72213884  0.95913547     0.03400
C90         C  0.39392908  0.72410086  0.96625954    -0.12700
C91         C  0.41229530  0.75773741  0.96688585     0.00900
C92         C  0.39254757  0.79013660  0.96237543    -0.11300
C93         C  0.35456640  0.78927284  0.95648123     0.03400
C94         C  0.33621104  0.75509754  0.95505151    -0.10700
H95         H  0.40953959  0.69914547  0.97020679     0.09000
H96         H  0.40696304  0.81623123  0.96345676     0.06500
H97         H  0.30697916  0.75418215  0.95003200     0.06400
C98         C  0.62765116  0.79570934  0.96912465     0.03400
C99         C  0.58906312  0.79391510  0.96899576    -0.12700
C100        C  0.57087609  0.76011109  0.96921919     0.00900
C101        C  0.59124194  0.72754303  0.96927822    -0.11300
C102        C  0.62991868  0.72845036  0.96844884     0.03400
C103        C  0.64811835  0.76274161  0.96826915    -0.10700
H104        H  0.57296302  0.81902552  0.96850318     0.09000
H105        H  0.57693087  0.70143245  0.96952211     0.06500
H106        H  0.67804654  0.76377721  0.96755065     0.06400
In107      In  0.71748077  0.00921748  0.96268167     1.36900
C108        C  0.74409472  0.00328926  0.02028766     0.77900
O109        O  0.72814221  0.06985874  0.96337017    -0.60600
O110        O  0.67259523  0.05132798  0.96748363    -0.51500
C111        C  0.73617700  0.00946922  0.90270223     0.70500
O112        O  0.75974261  0.00355987  0.92403167    -0.46300
C113        C  0.68869789  0.94249922  0.96179289     0.75200
O114        O  0.76498580  0.01077573  0.99740583    -0.58200
O115        O  0.66908795  0.97096430  0.96607844    -0.48300
O116        O  0.71062477  0.99928528  0.01330189    -0.54600
C117        C  0.69456400  0.07839043  0.96630156     0.85400
O118        O  0.70387431  0.01550084  0.91245875    -0.56500
O119        O  0.72253011  0.94858068  0.95707451    -0.59800
In120      In  0.28309747  0.50342245  0.96830425     1.36900
C121        C  0.25957187  0.49592646  0.91034294     0.77900
O122        O  0.26856416  0.56274725  0.96511457    -0.60600
O123        O  0.32550241  0.54730413  0.96337158    -0.51500
C124        C  0.26876842  0.50572361  0.02872719     0.70500
O125        O  0.24352280  0.50069659  0.00855898    -0.46300
C126        C  0.30727083  0.43546035  0.96756421     0.75200
O127        O  0.23704850  0.50003826  0.93287849    -0.58200
O128        O  0.32877122  0.46263989  0.96371697    -0.48300
O129        O  0.29317427  0.49641591  0.91798358    -0.54600
C130        C  0.30179193  0.57300342  0.96281737     0.85400
O131        O  0.30079057  0.51025991  0.01771306    -0.56500
O132        O  0.27409878  0.44346972  0.97355889    -0.59800
In133      In  0.71447083  0.51336532  0.97970322     1.36900
C134        C  0.74073630  0.51905039  0.03713673     0.77900
O135        O  0.72373945  0.57406384  0.97890511    -0.60600
O136        O  0.66878068  0.55431347  0.97263863    -0.51500
C137        C  0.73487572  0.50928816  0.92084934     0.70500
O138        O  0.75843123  0.51326767  0.94255529    -0.46300
C139        C  0.69076649  0.44409256  0.98155988     0.75200
O140        O  0.76171385  0.51417040  0.01377736    -0.58200
O141        O  0.66963899  0.47109849  0.98744296    -0.48300
O142        O  0.70675877  0.52060162  0.03078229    -0.54600
C143        C  0.69030788  0.58177864  0.97409079     0.85400
O144        O  0.70171904  0.50788459  0.92967801    -0.56500
O145        O  0.72386811  0.45275609  0.97622475    -0.59800
C146        C  0.36254942  0.28713659  0.96074646     0.03400
C147        C  0.34391150  0.25331747  0.96370448    -0.12700
C148        C  0.36399495  0.22012053  0.96470858     0.00900
C149        C  0.40246695  0.22107892  0.96129028    -0.11300
C150        C  0.42100497  0.25455672  0.95930607     0.03400
C151        C  0.40107074  0.28728376  0.95878876    -0.10700
H152        H  0.31414512  0.25283540  0.96557543     0.09000
H153        H  0.41822230  0.19576292  0.96116247     0.06500
H154        H  0.41583337  0.31315765  0.95743298     0.06400
C155        C  0.63783427  0.22733887  0.96464953     0.03400
C156        C  0.59950026  0.22712244  0.96060362    -0.12700
C157        C  0.57946551  0.25981994  0.95984913     0.00900
C158        C  0.59774183  0.29342664  0.96292222    -0.11300
C159        C  0.63607645  0.29481529  0.96672247     0.03400
C160        C  0.65634095  0.26152198  0.96734734    -0.10700
H161        H  0.58490839  0.20116791  0.95886664     0.09000
H162        H  0.58190262  0.31871572  0.96271381     0.06500
H163        H  0.68583836  0.26219305  0.97111351     0.06400
In164      In  0.27903110  0.00591689  0.96788102     1.36900
C165        C  0.25862947  0.01341975  0.90943135     0.77900
O166        O  0.26892998  0.06595972  0.96953464    -0.60600
O167        O  0.32465610  0.04672905  0.97303857    -0.51500
C168        C  0.26138147  0.00042889  0.02728451     0.70500
O169        O  0.23703907  0.00659404  0.00659182    -0.46300
C170        C  0.29847494  0.93686553  0.96057214     0.75200
O171        O  0.23501767  0.00851620  0.93098685    -0.58200
O172        O  0.32190500  0.96280487  0.96007536    -0.48300
O173        O  0.29186003  0.01404812  0.91824367    -0.54600
C174        C  0.30277353  0.07394628  0.97161257     0.85400
O175        O  0.29392325  0.99710211  0.01716056    -0.56500
O176        O  0.26531284  0.94661011  0.96449844    -0.59800
In177      In  0.26505006  0.47583396  0.22335028     1.36900
C178        C  0.25983765  0.49266282  0.16316603     0.77900
O179        O  0.32596031  0.48418531  0.22212899    -0.60600
O180        O  0.30552872  0.42925068  0.21835525    -0.51500
C181        C  0.26999250  0.50189104  0.28101715     0.70500
O182        O  0.26447154  0.52306894  0.25795210    -0.46300
C183        C  0.19657370  0.45324478  0.23319517     0.75200
O184        O  0.26618474  0.51703637  0.18384888    -0.58200
O185        O  0.22399661  0.43160378  0.23418105    -0.48300
O186        O  0.25545424  0.46063119  0.17379812    -0.54600
C187        C  0.33337245  0.45037175  0.21928530     0.85400
O188        O  0.27429676  0.46843005  0.27391844    -0.56500
O189        O  0.20425309  0.48606947  0.22614836    -0.59800
C190        C  0.54281537  0.11991553  0.20517168     0.03400
C191        C  0.54355039  0.15824496  0.20840462    -0.12700
C192        C  0.51106858  0.17830350  0.21138342     0.00900
C193        C  0.47719871  0.16011547  0.21226727    -0.11300
C194        C  0.47567565  0.12170527  0.20976616     0.03400
C195        C  0.50859738  0.10145434  0.20613713    -0.10700
H196        H  0.56965756  0.17275989  0.20856958     0.09000
H197        H  0.45196490  0.17588191  0.21453140     0.06500
H198        H  0.50757166  0.07178160  0.20407140     0.06400
C199        C  0.48226843  0.39274249  0.21022048     0.03400
C200        C  0.48408346  0.35438028  0.21239831    -0.12700
C201        C  0.51771211  0.33603993  0.21080031     0.00900
C202        C  0.55045080  0.35599469  0.20830806    -0.11300
C203        C  0.54993281  0.39461214  0.20751762     0.03400
C204        C  0.51553512  0.41306324  0.20870818    -0.10700
H205        H  0.45900082  0.33845385  0.21486522     0.09000
H206        H  0.57646845  0.34135218  0.20776557     0.06500
H207        H  0.51466225  0.44280825  0.20791071     0.06400
C208        C  0.97440827  0.12250331  0.22923982     0.03400
C209        C  0.97479351  0.16065358  0.23488555    -0.12700
C210        C  0.00809085  0.17963058  0.23847962     0.00900
C211        C  0.04126558  0.16040076  0.23585166    -0.11300
C212        C  0.04177306  0.12281644  0.22872667     0.03400
C213        C  0.00821996  0.10355239  0.22633533    -0.10700
H214        H  0.94905986  0.17575654  0.23582960     0.09000
H215        H  0.06707072  0.17504575  0.23880155     0.06500
H216        H  0.00848936  0.07421830  0.22191694     0.06400
C217        C  0.04888594  0.39613897  0.25157858     0.03400
C218        C  0.01486011  0.41511598  0.25017666    -0.12700
C219        C  0.98131628  0.39552941  0.24891270     0.00900
C220        C  0.98203542  0.35708101  0.25127391    -0.11300
C221        C  0.01536874  0.33787057  0.25209963     0.03400
C222        C  0.04858433  0.35749533  0.25278890    -0.10700
H223        H  0.01448063  0.44483434  0.24887245     0.09000
H224        H  0.95639817  0.34181004  0.25060948     0.06500
H225        H  0.07438721  0.34247648  0.25305872     0.06400
In226      In  0.25846357  0.04215871  0.21809168     1.36900
C227        C  0.26016091  0.02533035  0.27808720     0.77900
O228        O  0.31893689  0.03221317  0.21344589    -0.60600
O229        O  0.29970507  0.08787180  0.21530633    -0.51500
C230        C  0.25184339  0.01945228  0.15980033     0.70500
O231        O  0.25822080  0.99679501  0.18167411    -0.46300
C232        C  0.18969090  0.06499241  0.22091103     0.75200
O233        O  0.25662996  0.00063088  0.25717694    -0.58200
O234        O  0.21643653  0.08699146  0.21689214    -0.48300
O235        O  0.26396626  0.05762146  0.26787304    -0.54600
C236        C  0.32687471  0.06607109  0.21319569     0.85400
O237        O  0.24959783  0.05266992  0.16821576    -0.56500
O238        O  0.19848254  0.03150981  0.22352642    -0.59800
In239      In  0.75927175  0.03930229  0.21130268     1.36900
C240        C  0.75473560  0.02324461  0.27136421     0.77900
O241        O  0.81988484  0.02923356  0.21251175    -0.60600
O242        O  0.80007446  0.08464786  0.21627727    -0.51500
C243        C  0.76441336  0.01853906  0.15220830     0.70500
O244        O  0.75991225  0.99505473  0.17382382    -0.46300
C245        C  0.69026906  0.06090308  0.20691585     0.75200
O246        O  0.76035276  0.99837965  0.25087353    -0.58200
O247        O  0.71704491  0.08320497  0.20455565    -0.48300
O248        O  0.75162682  0.05543838  0.26077564    -0.54600
C249        C  0.82749076  0.06296343  0.21585302     0.85400
O250        O  0.76583550  0.05159102  0.16132450    -0.56500
O251        O  0.69912117  0.02761429  0.21100287    -0.59800
In252      In  0.76569356  0.48079020  0.22522359     1.36900
C253        C  0.76981128  0.50701685  0.16783563     0.77900
O254        O  0.82605012  0.49097199  0.23384478    -0.60600
O255        O  0.80833576  0.43591807  0.22518369    -0.51500
C256        C  0.76122591  0.49586106  0.28522642     0.70500
O257        O  0.76248892  0.52160440  0.26526334    -0.46300
C258        C  0.69715947  0.45556158  0.21886475     0.75200
O259        O  0.76364864  0.52818008  0.19094118    -0.58200
O260        O  0.72512410  0.43486510  0.21594602    -0.48300
O261        O  0.77550319  0.47387795  0.17483221    -0.54600
C262        C  0.83494542  0.45742476  0.23137759     0.85400
O263        O  0.76054426  0.46367248  0.27399039    -0.56500
O264        O  0.70453359  0.48871144  0.22515320    -0.59800
C265        C  0.13374653  0.73340232  0.47780182     0.03400
C266        C  0.09524673  0.73303856  0.47561642    -0.12700
C267        C  0.07517522  0.76583497  0.47468854     0.00900
C268        C  0.09390532  0.79941426  0.47615049    -0.11300
C269        C  0.13253221  0.80083102  0.47835946     0.03400
C270        C  0.15250059  0.76740789  0.47918298    -0.10700
H271        H  0.08082028  0.70696957  0.47444273     0.09000
H272        H  0.07815717  0.82472167  0.47586420     0.06500
H273        H  0.18221097  0.76770404  0.48156013     0.06400
C274        C  0.85796754  0.79768269  0.47535508     0.03400
C275        C  0.83838525  0.76416702  0.47303658    -0.12700
C276        C  0.85754597  0.73035950  0.47167873     0.00900
C277        C  0.89616474  0.73058866  0.47373566    -0.11300
C278        C  0.91578755  0.76353066  0.47579169     0.03400
C279        C  0.89660535  0.79685720  0.47648259    -0.10700
H280        H  0.80855298  0.76440533  0.47218838     0.09000
H281        H  0.91122270  0.70487702  0.47349988     0.06500
H282        H  0.91193861  0.82239603  0.47777625     0.06400
In283      In  0.21538105  0.51635700  0.46883855     1.36900
C284        C  0.23536063  0.50583698  0.52777852     0.77900
O285        O  0.22547881  0.57701439  0.47270228    -0.60600
O286        O  0.16981564  0.55822652  0.47400393    -0.51500
C287        C  0.24311359  0.52162790  0.41182150     0.70500
O288        O  0.26327245  0.51492982  0.43532565    -0.46300
C289        C  0.18856122  0.44923446  0.46025044     0.75200
O290        O  0.25868780  0.51329912  0.50668240    -0.58200
O291        O  0.16797028  0.47728900  0.46296629    -0.48300
O292        O  0.20251229  0.50381051  0.51836265    -0.54600
C293        C  0.19177722  0.58532653  0.47473147     0.85400
O294        O  0.20939799  0.52653747  0.41797766    -0.56500
O295        O  0.22268648  0.45600566  0.46074948    -0.59800
In296      In  0.77767742  0.51362640  0.47957785     1.36900
C297        C  0.76569931  0.51175089  0.41929500     0.77900
O298        O  0.76540061  0.57371290  0.48080854    -0.60600
O299        O  0.82166547  0.55638601  0.47732429    -0.51500
C300        C  0.75599219  0.51104982  0.53802738     0.70500
O301        O  0.73272627  0.51342216  0.51586910    -0.46300
C302        C  0.79906818  0.44444996  0.48027003     0.75200
O303        O  0.73884834  0.51457022  0.43833657    -0.58200
O304        O  0.82133052  0.47096974  0.48473181    -0.48300
O305        O  0.79736251  0.51041437  0.43149912    -0.54600
C306        C  0.79888373  0.58287867  0.47806845     0.85400
O307        O  0.78946259  0.51062165  0.52979553    -0.56500
O308        O  0.76582717  0.45375062  0.47573577    -0.59800
In309      In  0.77635860  0.01472786  0.46640373     1.36900
C310        C  0.76383125  0.01067019  0.40565015     0.77900
O311        O  0.76732134  0.07458847  0.45897910    -0.60600
O312        O  0.82182682  0.05594066  0.46956004    -0.51500
C313        C  0.74852259  0.02179473  0.52335654     0.70500
O314        O  0.72789292  0.01410323  0.50022467    -0.46300
C315        C  0.80017589  0.94624141  0.47273435     0.75200
O316        O  0.73773550  0.01560602  0.42507126    -0.58200
O317        O  0.82150406  0.97372378  0.47533267    -0.48300
O318        O  0.79547854  0.00772310  0.41771268    -0.54600
C319        C  0.80064063  0.08293701  0.46404372     0.85400
O320        O  0.78204244  0.02613422  0.51661845    -0.56500
O321        O  0.76686447  0.95403188  0.46717960    -0.59800
C322        C  0.12948425  0.30148817  0.44633876     0.03400
C323        C  0.14824667  0.26764373  0.45012941    -0.12700
C324        C  0.12851731  0.23415913  0.44877588     0.00900
C325        C  0.09058993  0.23472337  0.44314485    -0.11300
C326        C  0.07189718  0.26783500  0.44027818     0.03400
C327        C  0.09123670  0.30091274  0.44095377    -0.10700
H328        H  0.17736566  0.26733376  0.45564814     0.09000
H329        H  0.07506417  0.20923404  0.44282346     0.06500
H330        H  0.07596907  0.32641501  0.43896540     0.06400
C331        C  0.85897499  0.23062660  0.46536428     0.03400
C332        C  0.89645096  0.23154859  0.45754997    -0.12700
C333        C  0.91524067  0.26485638  0.45626342     0.00900
C334        C  0.89665006  0.29770701  0.46203573    -0.11300
C335        C  0.85922423  0.29765914  0.47028955     0.03400
C336        C  0.84012547  0.26384205  0.47134898    -0.10700
H337        H  0.91129564  0.20615893  0.45316338     0.09000
H338        H  0.91166954  0.32338038  0.46044240     0.06500
H339        H  0.81121780  0.26325639  0.47763669     0.06400
In340      In  0.21023051  0.01935620  0.46935638     1.36900
C341        C  0.23343220  0.02592601  0.52796810     0.77900
O342        O  0.21810396  0.07903467  0.46142149    -0.60600
O343        O  0.16302139  0.05925092  0.46734602    -0.51500
C344        C  0.23215092  0.01424486  0.41039721     0.70500
O345        O  0.25465136  0.02109512  0.43239981    -0.46300
C346        C  0.18684124  0.95078314  0.47533056     0.75200
O347        O  0.25567500  0.01905340  0.50581222    -0.58200
O348        O  0.16487250  0.97792525  0.47571687    -0.48300
O349        O  0.20050261  0.03063885  0.51952073    -0.54600
C350        C  0.18411901  0.08647244  0.46255044     0.85400
O351        O  0.19912164  0.00981020  0.41897487    -0.56500
O352        O  0.22036874  0.95900735  0.47158228    -0.59800
C353        C  0.17055473  0.12447814  0.45899140     0.00100
C354        C  0.14425614  0.13795994  0.48001284    -0.11700
C355        C  0.13198998  0.17437573  0.47824722     0.02400
C356        C  0.14585816  0.19795460  0.45481069     0.00000
C357        C  0.17245026  0.18451518  0.43397038    -0.11700
C358        C  0.18466910  0.14799421  0.43575712     0.02300
H359        H  0.13357065  0.12010900  0.49807060     0.15200
H360        H  0.18233092  0.20202832  0.41536516     0.15200
C361        C  0.20958559  0.13440914  0.41210543     0.36900
C362        C  0.10490997  0.18687436  0.50063888     0.36800
N363        N  0.22918754  0.12318462  0.39302064    -0.43500
N364        N  0.08304349  0.19688904  0.51839817    -0.43500
C365        C  0.03168753  0.26784764  0.44324878     0.00100
C366        C  0.01694629  0.26719538  0.47341852    -0.11700
C367        C  0.97897319  0.26559240  0.47796344     0.02400
C368        C  0.95530411  0.26521479  0.45195275     0.00000
C369        C  0.96998594  0.26546394  0.42171546    -0.11700
C370        C  0.00818047  0.26651515  0.41719613     0.02300
H371        H  0.03526635  0.26744395  0.49342338     0.15200
H372        H  0.95163034  0.26472194  0.40176947     0.15200
C373        C  0.02273926  0.26559539  0.38589763     0.36900
C374        C  0.96491786  0.26353034  0.50942346     0.36800
N375        N  0.03450799  0.26467804  0.36083266    -0.43500
N376        N  0.95374115  0.26160737  0.53463033    -0.43500
C377        C  0.81364241  0.12150300  0.46475442     0.00100
C378        C  0.84168761  0.13091173  0.48580332    -0.11700
C379        C  0.85497128  0.16691644  0.48773294     0.02400
C380        C  0.84075418  0.19428472  0.46781341     0.00000
C381        C  0.81191572  0.18527560  0.44737450    -0.11700
C382        C  0.79817235  0.14922199  0.44576153     0.02300
H383        H  0.85305953  0.11010675  0.50106442     0.15200
H384        H  0.80114365  0.20607815  0.43179705     0.15200
C385        C  0.76965133  0.14106163  0.42328416     0.36900
C386        C  0.88309752  0.17521854  0.51054663     0.36800
N387        N  0.74684377  0.13451640  0.40522463    -0.43500
N388        N  0.90557976  0.18191205  0.52884862    -0.43500
C389        C  0.84075548  0.33342694  0.47693345     0.00100
C390        C  0.80790221  0.34213357  0.46136259    -0.11700
C391        C  0.79290298  0.37765772  0.46306994     0.02400
C392        C  0.81133824  0.40551120  0.48018992     0.00000
C393        C  0.84301842  0.39620383  0.49713348    -0.11700
C394        C  0.85737010  0.36050884  0.49616554     0.02300
H395        H  0.79473137  0.32157679  0.44673962     0.15200
H396        H  0.85669652  0.41693922  0.51123514     0.15200
C397        C  0.88897292  0.35238656  0.51545114     0.36900
C398        C  0.75958058  0.38498512  0.44579521     0.36800
N399        N  0.91428209  0.34598840  0.53092429    -0.43500
N400        N  0.73276231  0.39068850  0.43203599    -0.43500
C401        C  0.17417471  0.41114485  0.45750655     0.00100
C402        C  0.19378858  0.38485266  0.43992138    -0.11700
C403        C  0.18065158  0.34864109  0.43647438     0.02400
C404        C  0.14757852  0.33800630  0.45135623     0.00000
C405        C  0.12925512  0.36399082  0.47024911    -0.11700
C406        C  0.14188334  0.40015182  0.47314397     0.02300
H407        H  0.21896172  0.39288639  0.42814147     0.15200
H408        H  0.10449489  0.35607590  0.48269432     0.15200
C409        C  0.12169564  0.42503111  0.49317623     0.36900
C410        C  0.20079602  0.32366149  0.41653709     0.36800
N411        N  0.10553655  0.44491612  0.50928499    -0.43500
N412        N  0.21713927  0.30374010  0.40058831    -0.43500
C413        C  0.81309855  0.90770479  0.47512334     0.00100
C414        C  0.80145022  0.88201617  0.45262177    -0.11700
C415        C  0.81462501  0.84570166  0.45276744     0.02400
C416        C  0.83927556  0.83423038  0.47628809     0.00000
C417        C  0.84966724  0.85969272  0.49952391    -0.11700
C418        C  0.83706815  0.89613637  0.49900336     0.02300
H419        H  0.78312702  0.89076497  0.43410588     0.15200
H420        H  0.86836567  0.85121029  0.51786280     0.15200
C421        C  0.84845970  0.92085784  0.52362658     0.36900
C422        C  0.80437164  0.82159621  0.42738216     0.36800
N423        N  0.85749875  0.94055664  0.54347302    -0.43500
N424        N  0.79625643  0.80226538  0.40699980    -0.43500
C425        C  0.83821033  0.69417674  0.46953170     0.00100
C426        C  0.80920350  0.68629990  0.49018642    -0.11700
C427        C  0.79500554  0.65047641  0.49265199     0.02400
C428        C  0.81061807  0.62163441  0.47485872     0.00000
C429        C  0.83799437  0.62986944  0.45297895    -0.11700
C430        C  0.85115538  0.66577184  0.44959796     0.02300
H431        H  0.79870747  0.70774837  0.50542606     0.15200
H432        H  0.84896668  0.60814587  0.43823991     0.15200
C433        C  0.87773302  0.67268483  0.42522834     0.36900
C434        C  0.76586765  0.64366016  0.51479535     0.36800
N435        N  0.89906867  0.67814865  0.40573951    -0.43500
N436        N  0.74243712  0.63813736  0.53246573    -0.43500
C437        C  0.15051440  0.83784930  0.48020350     0.00100
C438        C  0.13480630  0.86480365  0.49988571    -0.11700
C439        C  0.14635580  0.90156332  0.49897872     0.02400
C440        C  0.17462824  0.91209151  0.47835805     0.00000
C441        C  0.19196039  0.88499285  0.46012120    -0.11700
C442        C  0.18010849  0.84826401  0.46067548     0.02300
H443        H  0.11278171  0.85722054  0.51570274     0.15200
H444        H  0.21406837  0.89281264  0.44446692     0.15200
C445        C  0.19778800  0.82260146  0.43976915     0.36900
C446        C  0.12945653  0.92767122  0.52005326     0.36800
N447        N  0.21256464  0.80246291  0.42296416    -0.43500
N448        N  0.11604271  0.94849921  0.53709663    -0.43500
C449        C  0.17921784  0.62398930  0.47708343     0.00100
C450        C  0.18760227  0.64836487  0.45281195    -0.11700
C451        C  0.17444677  0.68469998  0.45321577     0.02400
C452        C  0.15323207  0.69743860  0.47863766     0.00000
C453        C  0.14601048  0.67334460  0.50344084    -0.11700
C454        C  0.15882486  0.63692741  0.50286233     0.02300
H455        H  0.20326674  0.63854239  0.43289385     0.15200
H456        H  0.12954447  0.68283394  0.52300774     0.15200
C457        C  0.15148081  0.61357453  0.52925256     0.36900
C458        C  0.18072103  0.70747928  0.42629540     0.36800
N459        N  0.14589047  0.59495453  0.55053069    -0.43500
N460        N  0.18546215  0.72552190  0.40452586    -0.43500
C461        C  0.03434437  0.76488256  0.47395730     0.00100
C462        C  0.01578927  0.74336102  0.49604554    -0.11700
C463        C  0.97729935  0.74236576  0.49708443     0.02400
C464        C  0.95659852  0.76335201  0.47570970     0.00000
C465        C  0.97512272  0.78455703  0.45339902    -0.11700
C466        C  0.01362078  0.78537744  0.45223633     0.02300
H467        H  0.03147843  0.72776580  0.51297075     0.15200
H468        H  0.95938453  0.80018319  0.43652610     0.15200
C469        C  0.03101700  0.80656006  0.42794716     0.36900
C470        C  0.95989687  0.72048912  0.52092080     0.36800
N471        N  0.04485206  0.82363968  0.40849851    -0.43500
N472        N  0.94606774  0.70274326  0.53993690    -0.43500
C473        C  0.76241155  0.50161920  0.31941509     0.00100
C474        C  0.74043751  0.52853236  0.33405716    -0.11700
C475        C  0.73986457  0.53185954  0.36684622     0.02400
C476        C  0.76186282  0.50830886  0.38512439     0.00000
C477        C  0.78423999  0.48217297  0.37031627    -0.11700
C478        C  0.78469033  0.47859841  0.33797426     0.02300
H479        H  0.72342507  0.54648271  0.31999448     0.15200
H480        H  0.80175788  0.46443397  0.38418867     0.15200
C481        C  0.80945098  0.45179076  0.32441771     0.36900
C482        C  0.71798332  0.56044517  0.38117252     0.36800
N483        N  0.82931873  0.43034540  0.31361107    -0.43500
N484        N  0.70066203  0.58339074  0.39288328    -0.43500
C485        C  0.75316791  0.01619699  0.30543759     0.00100
C486        C  0.77918742  0.99257374  0.31882564    -0.11700
C487        C  0.78244829  0.98959163  0.35133960     0.02400
C488        C  0.75855714  0.00970449  0.37123715     0.00000
C489        C  0.73109997  0.03165763  0.35777136    -0.11700
C490        C  0.72860225  0.03552062  0.32527328     0.02300
H491        H  0.79827482  0.97777683  0.30388410     0.15200
H492        H  0.71263163  0.04725153  0.37269621     0.15200
C493        C  0.70078561  0.05986776  0.31297593     0.36900
C494        C  0.81089562  0.96595439  0.36360663     0.36800
N495        N  0.67849417  0.07953403  0.30334271    -0.43500
N496        N  0.83377672  0.94713198  0.37346256    -0.43500
C497        C  0.25787527  0.01812729  0.31211489     0.00100
C498        C  0.23181619  0.99285129  0.32314192    -0.11700
C499        C  0.22399743  0.99020900  0.35513266     0.02400
C500        C  0.24288344  0.01274338  0.37690708     0.00000
C501        C  0.27068545  0.03621895  0.36601742    -0.11700
C502        C  0.27808923  0.03926674  0.33399536     0.02300
H503        H  0.21621502  0.97638052  0.30663408     0.15200
H504        H  0.28562435  0.05341424  0.38243221     0.15200
C505        C  0.30658887  0.06437838  0.32419264     0.36900
C506        C  0.19641074  0.96412694  0.36499504     0.36800
N507        N  0.32949909  0.08444222  0.31637282    -0.43500
N508        N  0.17437686  0.94321692  0.37303396    -0.43500
C509        C  0.94530598  0.41406549  0.24263102     0.00100
C510        C  0.93349365  0.44356706  0.26138573    -0.11700
C511        C  0.89817595  0.45899679  0.25753304     0.02400
C512        C  0.87351956  0.44411389  0.23516103     0.00000
C513        C  0.88587095  0.41548330  0.21581981    -0.11700
C514        C  0.92155312  0.40118567  0.21874933     0.02300
H515        H  0.95153934  0.45403252  0.27952292     0.15200
H516        H  0.86776631  0.40467961  0.19786113     0.15200
C517        C  0.93368282  0.37419104  0.19613339     0.36900
C518        C  0.88757517  0.48915926  0.27760356     0.36800
N519        N  0.94378155  0.35270401  0.17806681    -0.43500
N520        N  0.87928893  0.51343273  0.29368393    -0.43500
C521        C  0.15093032  0.07744567  0.22190934     0.00100
C522        C  0.14026924  0.10631143  0.20241724    -0.11700
C523        C  0.10417228  0.11970766  0.20285419     0.02400
C524        C  0.07802646  0.10476017  0.22373946     0.00000
C525        C  0.08829209  0.07496716  0.24249003    -0.11700
C526        C  0.12442185  0.06116926  0.24169557     0.02300
H527        H  0.16022021  0.11839495  0.18666590     0.15200
H528        H  0.06854112  0.06355214  0.25876225     0.15200
C529        C  0.13415350  0.03197334  0.26285416     0.36900
C530        C  0.09465311  0.14883982  0.18153526     0.36800
N531        N  0.14204053  0.00868284  0.27988566    -0.43500
N532        N  0.08709612  0.17221498  0.16448539    -0.43500
C533        C  0.93814063  0.10350422  0.22650231     0.00100
C534        C  0.91116119  0.11095917  0.24923341    -0.11700
C535        C  0.87519939  0.09764700  0.24612398     0.02400
C536        C  0.86561530  0.07603442  0.22008533     0.00000
C537        C  0.89271891  0.06693513  0.19801480    -0.11700
C538        C  0.92873350  0.08079249  0.20080016     0.02300
H539        H  0.91810502  0.12778306  0.26934022     0.15200
H540        H  0.88537827  0.05010612  0.17800610     0.15200
C541        C  0.95468140  0.07306356  0.17610321     0.36900
C542        C  0.84866173  0.10568739  0.27032384     0.36800
N543        N  0.97548779  0.06685453  0.15631306    -0.43500
N544        N  0.82713680  0.11173790  0.28958459    -0.43500
C545        C  0.01497086  0.29719354  0.24934113     0.00100
C546        C  0.99290026  0.27668882  0.26981787    -0.11700
C547        C  0.98961035  0.23847666  0.26654805     0.02400
C548        C  0.00904780  0.22010519  0.24258462     0.00000
C549        C  0.03090957  0.24065557  0.22206235    -0.11700
C550        C  0.03383127  0.27877878  0.22504182     0.02300
H551        H  0.97801968  0.29066493  0.28834126     0.15200
H552        H  0.04531979  0.22683689  0.20318730     0.15200
C553        C  0.05487310  0.29832641  0.20183869     0.36900
C554        C  0.96651514  0.21886886  0.28825223     0.36800
N555        N  0.07175764  0.31377007  0.18313529    -0.43500
N556        N  0.94770764  0.20327983  0.30550605    -0.43500
C557        C  0.65864550  0.44229888  0.21503109     0.00100
C558        C  0.65011154  0.41873754  0.19008460    -0.11700
C559        C  0.61407894  0.40562308  0.18565363     0.02400
C560        C  0.58596009  0.41457513  0.20730313     0.00000
C561        C  0.59420249  0.43932158  0.23156296    -0.11700
C562        C  0.62999278  0.45354378  0.23531441     0.02300
H563        H  0.67153655  0.41109576  0.17364303     0.15200
H564        H  0.57299548  0.44646499  0.24834488     0.15200
C565        C  0.63701732  0.47824993  0.26108436     0.36900
C566        C  0.60635375  0.38409414  0.15805366     0.36800
N567        N  0.64275154  0.49814550  0.28165860    -0.43500
N568        N  0.60028487  0.36734936  0.13562939    -0.43500
C569        C  0.36530890  0.07904309  0.21167990     0.00100
C570        C  0.38277121  0.08951061  0.23943541    -0.11700
C571        C  0.41931574  0.10186062  0.23936245     0.02400
C572        C  0.43909860  0.10369836  0.21109422     0.00000
C573        C  0.42175050  0.09278201  0.18327157    -0.11700
C574        C  0.38501939  0.08051500  0.18337520     0.02300
H575        H  0.36772102  0.08817654  0.26122508     0.15200
H576        H  0.43652422  0.09498534  0.16137681     0.15200
C577        C  0.36765734  0.07088142  0.15416198     0.36900
C578        C  0.43588725  0.11287175  0.26854551     0.36800
N579        N  0.35366650  0.06334023  0.13073763    -0.43500
N580        N  0.44910567  0.12165100  0.29197637    -0.43500
C581        C  0.57859250  0.10030964  0.20199368     0.00100
C582        C  0.58784102  0.07281060  0.22345474    -0.11700
C583        C  0.62386053  0.05882960  0.22492459     0.02400
C584        C  0.65142941  0.07291136  0.20497708     0.00000
C585        C  0.64183414  0.09926835  0.18273706    -0.11700
C586        C  0.60570339  0.11241338  0.18063126     0.02300
H587        H  0.56737404  0.06348579  0.24006596     0.15200
H588        H  0.66263046  0.10947594  0.16679144     0.15200
C589        C  0.59708181  0.13830283  0.15624762     0.36900
C590        C  0.63228301  0.03169171  0.24832062     0.36800
N591        N  0.59007858  0.15903561  0.13674692    -0.43500
N592        N  0.63904105  0.00992942  0.26706240    -0.43500
C593        C  0.51292292  0.21864157  0.21196052     0.00100
C594        C  0.52337620  0.23683064  0.18463662    -0.11700
C595        C  0.52569723  0.27512575  0.18396601     0.02400
C596        C  0.51803801  0.29560544  0.21117334     0.00000
C597        C  0.50792787  0.27736933  0.23862316    -0.11700
C598        C  0.50540818  0.23900821  0.23921418     0.02300
H599        H  0.52911353  0.22103043  0.16366681     0.15200
H600        H  0.50184727  0.29317838  0.25950417     0.15200
C601        C  0.49587221  0.22102508  0.26803212     0.36900
C602        C  0.53410354  0.29279911  0.15476313     0.36800
N603        N  0.48837919  0.20646831  0.29110225    -0.43500
N604        N  0.54048161  0.30672917  0.13118351    -0.43500
C605        C  0.26954621  0.51372087  0.31427407     0.00100
C606        C  0.28909397  0.49250142  0.33609107    -0.11700
C607        C  0.28337831  0.49684553  0.36825643     0.02400
C608        C  0.25672680  0.52208631  0.37914893     0.00000
C609        C  0.23923897  0.54519521  0.35750326    -0.11700
C610        C  0.24595928  0.54174481  0.32537074     0.02300
H611        H  0.30782776  0.47129104  0.32792858     0.15200
H612        H  0.21923829  0.56522761  0.36565767     0.15200
C613        C  0.22646364  0.56571633  0.30433719     0.36900
C614        C  0.30320492  0.47312912  0.38931165     0.36800
N615        N  0.21103616  0.58512820  0.28748875    -0.43500
N616        N  0.31921180  0.45423832  0.40620495    -0.43500
C617        C  0.15831969  0.44123600  0.23991620     0.00100
C618        C  0.12934020  0.45371772  0.22103334    -0.11700
C619        C  0.09320291  0.44070870  0.22515513     0.02400
C620        C  0.08528742  0.41535067  0.24919342     0.00000
C621        C  0.11411393  0.40474807  0.26925103    -0.11700
C622        C  0.15027809  0.41732353  0.26476068     0.02300
H623        H  0.13524909  0.47242729  0.20207047     0.15200
H624        H  0.10849185  0.38585209  0.28814156     0.15200
C625        C  0.17860092  0.40605465  0.28637003     0.36900
C626        C  0.06548799  0.45185790  0.20298401     0.36800
N627        N  0.20150777  0.39741113  0.30362288    -0.43500
N628        N  0.04315645  0.46073362  0.18528570    -0.43500
C629        C  0.37183360  0.43683036  0.21679397     0.00100
C630        C  0.38028361  0.41019675  0.19422449    -0.11700
C631        C  0.41641697  0.39727221  0.19047897     0.02400
C632        C  0.44504567  0.41033880  0.21018336     0.00000
C633        C  0.43662067  0.43746490  0.23248124    -0.11700
C634        C  0.40043142  0.45074490  0.23589681     0.02300
H635        H  0.35863102  0.39983055  0.17910434     0.15200
H636        H  0.45803215  0.44723145  0.24810336     0.15200
C637        C  0.39285406  0.47693568  0.26047673     0.36900
C638        C  0.42338414  0.37081756  0.16592005     0.36800
N639        N  0.38659331  0.49773463  0.28028539    -0.43500
N640        N  0.42891062  0.34950086  0.14634717    -0.43500
C641        C  0.25347321  0.99913817  0.06115147     0.00100
C642        C  0.22796580  0.02401480  0.07373539    -0.11700
C643        C  0.22548259  0.02941503  0.10603402     0.02400
C644        C  0.24834073  0.00911455  0.12644815     0.00000
C645        C  0.27130886  0.98175270  0.11399052    -0.11700
C646        C  0.27430446  0.97686045  0.08160664     0.02300
H647        H  0.21160559  0.04097969  0.05828160     0.15200
H648        H  0.28864080  0.96574472  0.12942603     0.15200
C649        C  0.29959235  0.94938400  0.06992779     0.36900
C650        C  0.19991343  0.05673318  0.11757550     0.36800
N651        N  0.31985507  0.92741067  0.06049819    -0.43500
N652        N  0.17954354  0.07866648  0.12690247    -0.43500
C653        C  0.34549225  0.18408893  0.96928504     0.00100
C654        C  0.31594401  0.17418620  0.94987251    -0.11700
C655        C  0.30089825  0.13872603  0.95093938     0.02400
C656        C  0.31579790  0.11236597  0.97150794     0.00000
C657        C  0.34431360  0.12262017  0.99172664    -0.11700
C658        C  0.35876059  0.15826639  0.99120601     0.02300
H659        H  0.30556187  0.19370050  0.93298228     0.15200
H660        H  0.35523016  0.10273782  0.00808190     0.15200
C661        C  0.38688384  0.16775546  0.01370187     0.36900
C662        C  0.27176880  0.12944326  0.92933192     0.36800
N663        N  0.40947927  0.17543787  0.03163068    -0.43500
N664        N  0.24847818  0.12192020  0.91200141    -0.43500
C665        C  0.46153616  0.25568759  0.95961079     0.00100
C666        C  0.48116344  0.23948725  0.93497721    -0.11700
C667        C  0.51967163  0.24100440  0.93427037     0.02400
C668        C  0.53887954  0.25866699  0.95872599     0.00000
C669        C  0.51916111  0.27461435  0.98342761    -0.11700
C670        C  0.48076333  0.27325062  0.98407557     0.02300
H671        H  0.46632544  0.22620986  0.91606751     0.15200
H672        H  0.53389156  0.28770454  0.00249893     0.15200
C673        C  0.46171845  0.28925563  0.01043518     0.36900
C674        C  0.53880086  0.22540512  0.90781459     0.36800
N675        N  0.44635771  0.30211570  0.03147080    -0.43500
N676        N  0.55421917  0.21300564  0.88661390    -0.43500
C677        C  0.75404352  0.52186367  0.06978967     0.00100
C678        C  0.73462618  0.54428354  0.09099687    -0.11700
C679        C  0.74202581  0.54309886  0.12312851     0.02400
C680        C  0.76850505  0.51815383  0.13459523     0.00000
C681        C  0.78980816  0.49794309  0.11312103    -0.11700
C682        C  0.78317910  0.49994708  0.08098836     0.02300
H683        H  0.71269007  0.56188710  0.08253548     0.15200
H684        H  0.81054981  0.47898297  0.12160952     0.15200
C685        C  0.80467002  0.47689679  0.06039334     0.36900
C686        C  0.72027799  0.56579670  0.14381189     0.36800
N687        N  0.82193481  0.45846297  0.04387415    -0.43500
N688        N  0.70293657  0.58423175  0.16027820    -0.43500
C689        C  0.65336736  0.33157205  0.97187391     0.00100
C690        C  0.64005210  0.35382780  0.99635952    -0.11700
C691        C  0.65166799  0.39041712  0.00002537     0.02400
C692        C  0.67797585  0.40528516  0.97943221     0.00000
C693        C  0.69190205  0.38282879  0.95533011    -0.11700
C694        C  0.67922800  0.34663183  0.95096754     0.02300
H695        H  0.61969779  0.34276522  0.01228565     0.15200
H696        H  0.71148835  0.39421437  0.93888864     0.15200
C697        C  0.69058558  0.32683798  0.92334860     0.36900
C698        C  0.63638159  0.41189928  0.02527463     0.36800
N699        N  0.69929695  0.31143152  0.90085841    -0.43500
N700        N  0.62396069  0.42898225  0.04553837    -0.43500
C701        C  0.26218211  0.50495664  0.06286072     0.00100
C702        C  0.27816045  0.53210067  0.08198717    -0.11700
C703        C  0.27585882  0.53011963  0.11468839     0.02400
C704        C  0.25844416  0.49969026  0.12888733     0.00000
C705        C  0.24162966  0.47313741  0.10952789    -0.11700
C706        C  0.24307166  0.47570091  0.07692534     0.02300
H707        H  0.29285307  0.55475524  0.07131485     0.15200
H708        H  0.22795145  0.44967027  0.11988422     0.15200
C709        C  0.22695009  0.44658943  0.05839965     0.36900
C710        C  0.29271532  0.55901231  0.13292985     0.36800
N711        N  0.21418102  0.42331824  0.04340422    -0.43500
N712        N  0.30603109  0.58234285  0.14751214    -0.43500
C713        C  0.31943769  0.39695693  0.96444580     0.00100
C714        C  0.30729129  0.37100133  0.98625866    -0.11700
C715        C  0.31939899  0.33441559  0.98478394     0.02400
C716        C  0.34327590  0.32316702  0.96053141     0.00000
C717        C  0.35331247  0.34876987  0.93758314    -0.11700
C718        C  0.34194018  0.38541260  0.93947931     0.02300
H719        H  0.28948251  0.37969322  0.00523039     0.15200
H720        H  0.37118417  0.34030150  0.91858193     0.15200
C721        C  0.35322116  0.41036256  0.91518464     0.36900
C722        C  0.30891130  0.30982681  0.00954606     0.36800
N723        N  0.36231790  0.43017032  0.89561036    -0.43500
N724        N  0.30049457  0.29015054  0.02942852    -0.43500
C725        C  0.76640502  0.00924381  0.11842108     0.00100
C726        C  0.74518887  0.98015945  0.10652729    -0.11700
C727        C  0.74012486  0.97586297  0.07423944     0.02400
C728        C  0.75641652  0.00099693  0.05323968     0.00000
C729        C  0.78075432  0.02756745  0.06496932    -0.11700
C730        C  0.78593393  0.03179875  0.09722988     0.02300
H731        H  0.73089790  0.96199796  0.12244197     0.15200
H732        H  0.79406565  0.04646657  0.04906826     0.15200
C733        C  0.81118501  0.05980193  0.10802175     0.36900
C734        C  0.71789918  0.94553788  0.06318607     0.36800
N735        N  0.83155141  0.08204975  0.11679336    -0.43500
N736        N  0.70040127  0.92102236  0.05432100    -0.43500
C737        C  0.68207834  0.11718590  0.96790064     0.00100
C738        C  0.69839916  0.14340552  0.94825631    -0.11700
C739        C  0.68561682  0.17991093  0.94758067     0.06400
C740        C  0.65671644  0.19101348  0.96756099     0.00000
C741        C  0.64178973  0.16503295  0.98829779    -0.11700
C742        C  0.65379315  0.12842808  0.98832913     0.02300
H743        H  0.72009237  0.13494324  0.93237144     0.15200
H744        H  0.61971511  0.17316420  0.00392977     0.15200
C745        C  0.63688052  0.10299096  0.00976262     0.36900
C746        C  0.70075271  0.20455525  0.92466235     0.36800
N747        N  0.62345001  0.08245083  0.02686328    -0.43500
N748        N  0.71283911  0.22415155  0.90612282    -0.43500
C749        C  0.65016488  0.69289093  0.96771657     0.00100
C750        C  0.64073842  0.66678576  0.94476715    -0.11700
C751        C  0.65455852  0.63085259  0.94583281     0.02400
C752        C  0.67761192  0.62018945  0.97063280     0.00000
C753        C  0.68900666  0.64680771  0.99240973    -0.11700
C754        C  0.67561199  0.68297340  0.99114000     0.02300
H755        H  0.62208120  0.67445234  0.92610838     0.15200
H756        H  0.70765430  0.63896063  0.01118815     0.15200
C757        C  0.68702583  0.70885804  0.01485836     0.36900
C758        C  0.64628252  0.60595911  0.92045208     0.36800
N759        N  0.69634077  0.72976065  0.03370230    -0.43500
N760        N  0.64024002  0.58621778  0.89983350    -0.43500
C761        C  0.67369063  0.90474410  0.96334837     0.00100
C762        C  0.64855782  0.89618694  0.98703585    -0.11700
C763        C  0.63511685  0.86033932  0.99045038     0.02400
C764        C  0.64562759  0.83248632  0.96905261     0.00000
C765        C  0.67126579  0.84095586  0.94564873    -0.11700
C766        C  0.68559733  0.87662450  0.94286538     0.02300
H767        H  0.64020629  0.91735540  0.00348949     0.15200
H768        H  0.67938136  0.81992311  0.92901148     0.15200
C769        C  0.71141313  0.88407288  0.91807424     0.36900
C770        C  0.61160242  0.85248807  0.01678034     0.36800
N771        N  0.73215219  0.89028540  0.89829565    -0.43500
N772        N  0.59289237  0.84597702  0.03789392    -0.43500
C773        C  0.33500806  0.82484282  0.95294122     0.00100
C774        C  0.30727989  0.83415202  0.97436215    -0.11700
C775        C  0.29426610  0.87037452  0.97664380     0.02400
C776        C  0.30907434  0.89787940  0.95716664     0.00000
C777        C  0.33524754  0.88816199  0.93458810    -0.11700
C778        C  0.34797844  0.85195015  0.93209217     0.02300
H779        H  0.29751515  0.81366958  0.99068907     0.15200
H780        H  0.34610888  0.90902422  0.91911784     0.15200
C781        C  0.37502861  0.84340771  0.90841681     0.36900
C782        C  0.26815907  0.87927272  0.00095333     0.36800
N783        N  0.39679778  0.83651994  0.88955264    -0.43500
N784        N  0.24744127  0.88662073  0.02052923    -0.43500
C785        C  0.33883405  0.68517881  0.95596873     0.00100
C786        C  0.30608040  0.67732283  0.97206584    -0.11700
C787        C  0.29246738  0.64121035  0.97353999     0.02400
C788        C  0.31243804  0.61209393  0.95948224     0.00000
C789        C  0.34388551  0.62031711  0.94194620    -0.11700
C790        C  0.35657221  0.65642728  0.93935120     0.02300
H791        H  0.29187081  0.69913656  0.98453117     0.15200
H792        H  0.35854572  0.59839150  0.92998735     0.15200
C793        C  0.38765269  0.66321280  0.91910142     0.36900
C794        C  0.25893047  0.63467594  0.99075305     0.36800
N795        N  0.41257739  0.66869725  0.90294621    -0.43500
N796        N  0.23190611  0.62947836  0.00436715    -0.43500
C797        C  0.45284107  0.75874433  0.96868758     0.00100
C798        C  0.47220489  0.77334562  0.94331898    -0.11700
C799        C  0.51064003  0.77338438  0.94292186     0.02400
C800        C  0.53029162  0.75905620  0.96845865     0.00000
C801        C  0.51101399  0.74425859  0.99382880    -0.11700
C802        C  0.47242656  0.74397176  0.99411256     0.02300
H803        H  0.45718533  0.78400047  0.92344835     0.15200
H804        H  0.52614454  0.73335018  0.01352476     0.15200
C805        C  0.45351983  0.72922460  0.02090067     0.36900
C806        C  0.52936277  0.78695047  0.91558172     0.36800
N807        N  0.43822738  0.71739941  0.04229611    -0.43500
N808        N  0.54450604  0.79762200  0.89367962    -0.43500
C809        C  0.73899793  0.51388075  0.63710399     0.00100
C810        C  0.71570263  0.53426909  0.61745138    -0.11700
C811        C  0.71843297  0.53142158  0.58487115     0.02400
C812        C  0.74609282  0.50917943  0.57149199     0.00000
C813        C  0.76796205  0.48730426  0.59109115    -0.11700
C814        C  0.76403827  0.48877195  0.62356899     0.02300
H815        H  0.69584908  0.55314642  0.62759960     0.15200
H816        H  0.78883865  0.46952378  0.58097164     0.15200
C817        C  0.78734643  0.46553942  0.64233000     0.36900
C818        C  0.69394587  0.55304999  0.56581967     0.36800
N819        N  0.80586061  0.44661703  0.65726254    -0.43500
N820        N  0.67410140  0.57011042  0.55050209    -0.43500
C821        C  0.75125236  0.50927718  0.82176665     0.00100
C822        C  0.77556418  0.52898393  0.84117902    -0.11700
C823        C  0.77239332  0.52774125  0.87369835     0.02400
C824        C  0.74419141  0.50661015  0.88734134     0.00000
C825        C  0.72137500  0.48508983  0.86800478    -0.11700
C826        C  0.72480289  0.48602572  0.83548036     0.02300
H827        H  0.79601171  0.54693865  0.83083314     0.15200
H828        H  0.69977273  0.46850702  0.87832887     0.15200
C829        C  0.69885834  0.46525646  0.81692446     0.36900
C830        C  0.79626290  0.55093673  0.89218173     0.36800
N831        N  0.67792907  0.44850796  0.80226333    -0.43500
N832        N  0.81540399  0.56970940  0.90683382    -0.43500
C833        C  0.73650593  0.02382934  0.55648450     0.00100
C834        C  0.75875674  0.04390156  0.57741490    -0.11700
C835        C  0.75648882  0.03846919  0.60968090     0.02400
C836        C  0.73176813  0.01216814  0.62157734     0.00000
C837        C  0.70664952  0.99522683  0.60099147    -0.11700
C838        C  0.70839209  0.00131661  0.56869108     0.02300
H839        H  0.77985819  0.06211063  0.56840725     0.15200
H840        H  0.68675914  0.97573395  0.61001980     0.15200
C841        C  0.68283717  0.98206601  0.54865314     0.36900
C842        C  0.78250556  0.05734759  0.62956346     0.36800
N843        N  0.66210800  0.96680635  0.53267780    -0.43500
N844        N  0.80345196  0.07242167  0.64545710    -0.43500
C845        C  0.74940069  0.00042882  0.80294097     0.00100
C846        C  0.77297538  0.98074948  0.82285951    -0.11700
C847        C  0.77112012  0.98507790  0.85540707     0.02400
C848        C  0.74444687  0.00873053  0.86867651     0.00000
C849        C  0.72221582  0.02976760  0.84862949    -0.11700
C850        C  0.72479370  0.02619901  0.81610463     0.02300
H851        H  0.79224394  0.96109092  0.81297181     0.15200
H852        H  0.70188461  0.04837574  0.85844506     0.15200
C853        C  0.69998771  0.04736388  0.79694473     0.36900
C854        C  0.79528715  0.96318915  0.87454652     0.36800
N855        N  0.68012056  0.06433971  0.78157842    -0.43500
N856        N  0.81474294  0.94568620  0.88986327    -0.43500
C857        C  0.25147718  0.50083752  0.62710166     0.00100
C858        C  0.27628208  0.52073412  0.60848628    -0.11700
C859        C  0.27354145  0.52035171  0.57585664     0.02400
C860        C  0.24457140  0.50092667  0.56128322     0.00000
C861        C  0.22124386  0.47911905  0.57981074    -0.11700
C862        C  0.22491401  0.47836880  0.61238721     0.02300
H863        H  0.29718820  0.53765503  0.61954867     0.15200
H864        H  0.19932300  0.46341334  0.56887110     0.15200
C865        C  0.19960286  0.45617974  0.63019641     0.36900
C866        C  0.29939637  0.54193913  0.55810954     0.36800
N867        N  0.17952697  0.43824759  0.64455398    -0.43500
N868        N  0.32019783  0.55902163  0.54375175    -0.43500
C869        C  0.23818987  0.49205257  0.81167558     0.00100
C870        C  0.21191438  0.50775800  0.83188196    -0.11700
C871        C  0.21674998  0.50717080  0.86437359     0.02400
C872        C  0.24882244  0.49127802  0.87711192     0.00000
C873        C  0.27378455  0.47347162  0.85693425    -0.11700
C874        C  0.26868754  0.47356878  0.82455798     0.02300
H875        H  0.18845638  0.52220265  0.82215904     0.15200
H876        H  0.29836975  0.46077524  0.86639671     0.15200
C877        C  0.29710694  0.45780967  0.80505536     0.36900
C878        C  0.18991929  0.52553926  0.88379915     0.36800
N879        N  0.31993194  0.44534932  0.78939406    -0.43500
N880        N  0.16844857  0.54022375  0.89945229    -0.43500
C881        C  0.24895659  0.01723011  0.62708478     0.00100
C882        C  0.27337631  0.99910031  0.60667564    -0.11700
C883        C  0.27125253  0.00405800  0.57425850     0.02400
C884        C  0.24342830  0.02669625  0.56163655     0.00000
C885        C  0.22066927  0.04666430  0.58224551    -0.11700
C886        C  0.22345923  0.04243356  0.61465747     0.02300
H887        H  0.29337515  0.97992725  0.61604586     0.15200
H888        H  0.19942066  0.06447988  0.57294597     0.15200
C889        C  0.19777561  0.06194050  0.63440764     0.36900
C890        C  0.29628805  0.98363439  0.55457146     0.36800
N891        N  0.17724808  0.07759634  0.65028816    -0.43500
N892        N  0.31650530  0.96735434  0.53884859    -0.43500
C893        C  0.23814077  0.01059974  0.81091058     0.00100
C894        C  0.26514689  0.03430005  0.82288859    -0.11700
C895        C  0.27091490  0.03728746  0.85512642     0.02400
C896        C  0.24898757  0.01664723  0.87600631     0.00000
C897        C  0.21977780  0.99566140  0.86411219    -0.11700
C898        C  0.21431038  0.99232990  0.83187129     0.02300
H899        H  0.28326604  0.04878865  0.80702888     0.15200
H900        H  0.20242276  0.98019687  0.87992727     0.15200
C901        C  0.18423113  0.96968200  0.82092823     0.36900
C902        C  0.29996369  0.06124481  0.86608730     0.36800
N903        N  0.15995652  0.95166276  0.81231396    -0.43500
N904        N  0.32321131  0.08047889  0.87484912    -0.43500
C905        C  0.42232130  0.59522584  0.73996844     0.00100
C906        C  0.41674782  0.56306637  0.72231006    -0.11700
C907        C  0.38145719  0.54750361  0.71926492     0.02400
C908        C  0.35078503  0.56436409  0.73388834     0.00000
C909        C  0.35671441  0.59519702  0.75296138    -0.11700
C910        C  0.39200192  0.61028450  0.75653869     0.02300
H911        H  0.43963083  0.55113805  0.70951506     0.15200
H912        H  0.33360629  0.60768561  0.76508300     0.15200
C913        C  0.39625027  0.64133197  0.77738485     0.36900
C914        C  0.37715650  0.51577750  0.69922756     0.36800
N915        N  0.39963825  0.66633277  0.79393620    -0.43500
N916        N  0.37361070  0.49041173  0.68310796    -0.43500
C917        C  0.56285279  0.59965201  0.74102270     0.00100
C918        C  0.58858754  0.61386026  0.76251478    -0.11700
C919        C  0.62572086  0.60306445  0.76165650     0.02400
C920        C  0.63752554  0.57699668  0.73935137     0.00000
C921        C  0.61159215  0.56175249  0.71870734    -0.11700
C922        C  0.57474450  0.57335122  0.71893730     0.02300
H923        H  0.57981941  0.63440927  0.77937721     0.15200
H924        H  0.62056403  0.54194878  0.70129851     0.15200
C925        C  0.55059742  0.56037714  0.69451246     0.36900
C926        C  0.65100557  0.61882155  0.78403372     0.36800
N927        N  0.53141053  0.55031933  0.67468083    -0.43500
N928        N  0.67121720  0.63147382  0.80199733    -0.43500
C929        C  0.34750612  0.93647232  0.71638504     0.00100
C930        C  0.37631419  0.95262163  0.73358748    -0.11700
C931        C  0.41236065  0.93847695  0.73219974     0.02400
C932        C  0.42026805  0.90789793  0.71279398     0.00000
C933        C  0.39159537  0.89290772  0.69464271    -0.11700
C934        C  0.35562069  0.90661795  0.69640163     0.02300
H935        H  0.37045993  0.97581087  0.74880460     0.15200
H936        H  0.39727308  0.86995297  0.67912208     0.15200
C937        C  0.32782771  0.89019416  0.67664353     0.36900
C938        C  0.44011323  0.95484836  0.75198240     0.36800
N939        N  0.30548813  0.87718709  0.66080029    -0.43500
N940        N  0.46236488  0.96811435  0.76776297    -0.43500
C941        C  0.56065982  0.90641264  0.70746228     0.00100
C942        C  0.57122032  0.93145984  0.73081367    -0.11700
C943        C  0.60762819  0.94451603  0.73257966     0.02400
C944        C  0.63442818  0.93172527  0.71114565     0.00000
C945        C  0.62344238  0.90782540  0.68711710    -0.11700
C946        C  0.58685828  0.89577781  0.68475850     0.02300
H947        H  0.55133846  0.93980352  0.74835825     0.15200
H948        H  0.64338034  0.89903335  0.66976562     0.15200
C949        C  0.57650675  0.87324535  0.65835585     0.36900
C950        C  0.61710507  0.96977767  0.75738150     0.36800
N951        N  0.56801414  0.85551927  0.63705873    -0.43500
N952        N  0.62477648  0.99012455  0.77716838    -0.43500
C953        C  0.49000867  0.79026789  0.71903930     0.00100
C954        C  0.47224189  0.76825643  0.69664861    -0.11700
C955        C  0.47222040  0.72988031  0.69926902     0.02400
C956        C  0.49000243  0.71317195  0.72482984     0.00000
C957        C  0.50745221  0.73529609  0.74727338    -0.11700
C958        C  0.50748375  0.77352196  0.74464953     0.02300
H959        H  0.45888823  0.78108983  0.67686677     0.15200
H960        H  0.52068171  0.72261707  0.76719455     0.15200
C961        C  0.52447381  0.79504696  0.76910387     0.36900
C962        C  0.45498277  0.70827196  0.67497367     0.36800
N963        N  0.53797303  0.81235545  0.78872086    -0.43500
N964        N  0.44118919  0.69089455  0.65553860    -0.43500
C965        C  0.13856055  0.56702367  0.71380366     0.00100
C966        C  0.12928997  0.59484337  0.73505167    -0.11700
C967        C  0.09380084  0.60963860  0.73589292     0.02400
C968        C  0.06648502  0.59658247  0.71508766     0.00000
C969        C  0.07538297  0.56804072  0.69429215    -0.11700
C970        C  0.11119454  0.55339147  0.69329990     0.02300
H971        H  0.14995259  0.60511647  0.75118502     0.15200
H972        H  0.05483874  0.55847936  0.67775530     0.15200
C973        C  0.11971631  0.52673849  0.66935487     0.36900
C974        C  0.08647038  0.63852084  0.75824205     0.36800
N975        N  0.12613674  0.50582834  0.64968210    -0.43500
N976        N  0.08136351  0.66180777  0.77619109    -0.43500
C977        C  0.92712285  0.59949751  0.72094025     0.00100
C978        C  0.91462107  0.57246096  0.70013708    -0.11700
C979        C  0.87818855  0.55969544  0.70145473     0.02400
C980        C  0.85327526  0.57483703  0.72341313     0.00000
C981        C  0.86631719  0.60075156  0.74507779    -0.11700
C982        C  0.90310059  0.61246001  0.74445859     0.02300
H983        H  0.93299080  0.56226801  0.68210129     0.15200
H984        H  0.84788944  0.61138408  0.76288470     0.15200
C985        C  0.91606895  0.63681640  0.76877970     0.36900
C986        C  0.86691663  0.53239218  0.67894509     0.36800
N987        N  0.92675152  0.65585700  0.78849529    -0.43500
N988        N  0.85873146  0.51046227  0.66061055    -0.43500
C989        C  0.06389474  0.90967516  0.71488094     0.00100
C990        C  0.07130834  0.94146334  0.69747381    -0.11700
C991        C  0.10642183  0.95786561  0.69799911     0.02400
C992        C  0.13520447  0.94173216  0.71549179     0.00000
C993        C  0.12715827  0.91131845  0.73423152    -0.11700
C994        C  0.09183668  0.89586652  0.73469120     0.02300
H995        H  0.05007746  0.95267031  0.68246117     0.15200
H996        H  0.14853960  0.89972245  0.74887884     0.15200
C997        C  0.08486822  0.86630849  0.75626760     0.36900
C998        C  0.11247288  0.99020273  0.67933972     0.36800
N999        N  0.07942504  0.84277603  0.77372787    -0.43500
N1000       N  0.11712110  0.01626430  0.66449465    -0.43500
C1001       C  0.92342235  0.90147537  0.70569529     0.00100
C1002       C  0.89537278  0.88071054  0.72007201    -0.11700
C1003       C  0.85847090  0.89222606  0.72000966     0.02400
C1004       C  0.84864043  0.92581538  0.70584583     0.00000
C1005       C  0.87672218  0.94722555  0.69239611    -0.11700
C1006       C  0.91362531  0.93540945  0.69203265     0.02300
H1007       H  0.90227295  0.85508430  0.73148899     0.15200
H1008       H  0.86975822  0.97322729  0.68163889     0.15200
C1009       C  0.94040259  0.95827828  0.67657129     0.36900
C1010       C  0.83164366  0.86932061  0.73545198     0.36800
N1011       N  0.96179143  0.97690727  0.66436672    -0.43500
N1012       N  0.81031650  0.85083322  0.74789427    -0.43500
C1013       C  0.00121940  0.79008142  0.69752992     0.00100
C1014       C  0.00634007  0.77289559  0.72635668    -0.11700
C1015       C  0.00482495  0.73472837  0.72878452     0.02400
C1016       C  0.99875527  0.71318370  0.70192177     0.00000
C1017       C  0.99421083  0.73018919  0.67291001    -0.11700
C1018       C  0.99522719  0.76860182  0.67055874     0.02300
H1019       H  0.01043613  0.78948479  0.74717547     0.15200
H1020       H  0.98971604  0.71347836  0.65223764     0.15200
C1021       C  0.99037768  0.78536976  0.64042132     0.36900
C1022       C  0.00816523  0.71826254  0.75921843     0.36800
N1023       N  0.98658920  0.79873693  0.61620796    -0.43500
N1024       N  0.01042494  0.70507347  0.78363254    -0.43500
loop_ 
_geom_bond_atom_site_label_1 
_geom_bond_atom_site_label_2 
_geom_bond_distance 
_geom_bond_site_symmetry_2 
_ccdc_geom_bond_type 
C1            C2   1.419       .  A
C1            C6   1.406       .  A
C1         C1001   1.503       .  S
C2            C3   1.415   1_655  A
C2            H7   1.082       .  S
C3            C4   1.404       .  A
C3          C989   1.495       .  S
C4            C5   1.394   1_455  A
C4            H8   1.084       .  S
C5            C6   1.394       .  A
C5         C1013   1.471   1_655  S
C6            H9   1.084       .  S
C10          C11   1.410   1_455  A
C10          C15   1.401       .  A
C10         C968   1.483       .  S
C11          C12   1.411       .  A
C11          H16   1.083       .  S
C12          C13   1.403       .  A
C12         C977   1.483       .  S
C13          C14   1.395       .  A
C13          H17   1.085       .  S
C14          C15   1.393   1_655  A
C14        C1016   1.468       .  S
C15          H18   1.084       .  S
C19          C20   1.412       .  A
C19          C24   1.402       .  A
C19         C941   1.489       .  S
C20          C21   1.415       .  A
C20          H25   1.083       .  S
C21          C22   1.406       .  A
C21         C932   1.496       .  S
C22          C23   1.396       .  A
C22          H26   1.084       .  S
C23          C24   1.397       .  A
C23         C953   1.477       .  S
C24          H27   1.085       .  S
C28          C29   1.405       .  A
C28          C33   1.415       .  A
C28         C905   1.496       .  S
C29          C30   1.397       .  A
C29          H34   1.083       .  S
C30          C31   1.396       .  A
C30         C956   1.478       .  S
C31          C32   1.399       .  A
C31          H35   1.085       .  S
C32          C33   1.414       .  A
C32         C917   1.488       .  S
C33          H36   1.083       .  S
In37         O39   2.245       .  S
In37         O40   2.238       .  S
In37         O48   2.220       .  S
In37         O42   2.266   1_565  S
In37         O44   2.267   1_565  S
In37         O45   2.236       .  S
In37         O46   2.213       .  S
In37         O49   2.244       .  S
C38         C893   1.481       .  S
C38          O44   1.271       .  A
C38          O46   1.260   1_545  A
O39          C47   1.264       .  A
O40          C47   1.268       .  A
C41         C881   1.485       .  S
C41          O48   1.261   1_545  A
C41          O42   1.271       .  A
C43         C929   1.485       .  S
C43          O45   1.267       .  A
C43          O49   1.264       .  A
C47         C992   1.485       .  S
In50         O52   2.233       .  S
In50         O53   2.247       .  S
In50         O61   2.214       .  S
In50         O55   2.257       .  S
In50         O57   2.265       .  S
In50         O58   2.230       .  S
In50         O59   2.212       .  S
In50         O62   2.238       .  S
C51         C869   1.481       .  S
C51          O57   1.271       .  A
C51          O59   1.259       .  A
O52          C60   1.264       .  A
O53          C60   1.269       .  A
C54         C857   1.484       .  S
C54          O61   1.264       .  A
C54          O55   1.272       .  A
C56         C965   1.479       .  S
C56          O58   1.269       .  A
C56          O62   1.265       .  A
C60         C908   1.486       .  S
In63         O65   2.235       .  S
In63         O66   2.253       .  S
In63         O74   2.225       .  S
In63         O68   2.267   1_565  S
In63         O70   2.263   1_565  S
In63         O71   2.260       .  S
In63         O72   2.229       .  S
In63         O75   2.241       .  S
C64         C845   1.486   1_565  S
C64          O70   1.270   1_565  A
C64          O72   1.262       .  A
O65          C73   1.262       .  A
O66          C73   1.268       .  A
C67         C836   1.485   1_565  S
C67          O74   1.261       .  A
C67          O68   1.269   1_565  A
C69        C1004   1.493       .  S
C69          O71   1.268       .  A
C69          O75   1.263       .  A
C73         C944   1.485       .  S
In76         O78   2.221       .  S
In76         O79   2.251       .  S
In76         O87   2.198       .  S
In76         O81   2.263       .  S
In76         O83   2.247       .  S
In76         O84   2.244       .  S
In76         O85   2.218       .  S
In76         O88   2.229       .  S
C77         C809   1.484       .  S
C77          O83   1.272       .  A
C77          O85   1.266       .  A
O78          C86   1.264       .  A
O79          C86   1.271       .  A
C80         C821   1.479       .  S
C80          O87   1.261       .  A
C80          O81   1.272       .  A
C82         C980   1.481       .  S
C82          O84   1.271       .  A
C82          O88   1.264       .  A
C86         C920   1.480       .  S
C89          C90   1.404       .  A
C89          C94   1.413       .  A
C89         C785   1.490       .  S
C90          C91   1.393       .  A
C90          H95   1.084       .  S
C91          C92   1.393       .  A
C91         C797   1.474       .  S
C92          C93   1.401       .  A
C92          H96   1.085       .  S
C93          C94   1.411       .  A
C93         C773   1.484       .  S
C94          H97   1.083       .  S
C98          C99   1.402       .  A
C98         C103   1.411       .  A
C98         C764   1.488       .  S
C99         C100   1.396       .  A
C99         H104   1.084       .  S
C100        C101   1.396       .  A
C100        C800   1.473       .  S
C101        C102   1.404       .  A
C101        H105   1.083       .  S
C102        C103   1.411       .  A
C102        C749   1.488       .  S
C103        H106   1.087       .  S
In107       O109   2.239       .  S
In107       O110   2.244       .  S
In107       O118   2.223       .  S
In107       O112   2.267       .  S
In107       O114   2.279       .  S
In107       O115   2.246   1_545  S
In107       O116   2.217   1_546  S
In107       O119   2.225   1_545  S
C108        C728   1.485       .  S
C108        O114   1.271   1_554  A
C108        O116   1.259   1_545  A
O109        C117   1.263       .  A
O110        C117   1.268       .  A
C111        C848   1.490       .  S
C111        O118   1.263       .  A
C111        O112   1.271       .  A
C113        C761   1.479       .  S
C113        O115   1.269       .  A
C113        O119   1.264       .  A
C117        C737   1.483       .  S
In120       O122   2.226       .  S
In120       O123   2.228       .  S
In120       O131   2.227   1_556  S
In120       O125   2.248   1_556  S
In120       O127   2.261       .  S
In120       O128   2.232       .  S
In120       O129   2.203       .  S
In120       O132   2.218       .  S
C121        C872   1.487       .  S
C121        O127   1.274       .  A
C121        O129   1.263       .  A
O122        C130   1.266       .  A
O123        C130   1.271       .  A
C124        C701   1.484       .  S
C124        O131   1.265       .  A
C124        O125   1.272       .  A
C126        C713   1.474       .  S
C126        O128   1.271       .  A
C126        O132   1.264       .  A
C130        C788   1.481       .  S
In133       O135   2.234       .  S
In133       O136   2.250       .  S
In133       O144   2.203       .  S
In133       O138   2.255       .  S
In133       O140   2.253   1_556  S
In133       O141   2.264       .  S
In133       O142   2.223   1_556  S
In133       O145   2.235       .  S
C134        C677   1.485       .  S
C134        O140   1.270       .  A
C134        O142   1.264       .  A
O135        C143   1.262       .  A
O136        C143   1.269       .  A
C137        C824   1.479       .  S
C137        O144   1.262       .  A
C137        O138   1.272       .  A
C139        C692   1.488       .  S
C139        O141   1.270       .  A
C139        O145   1.263       .  A
C143        C752   1.479       .  S
C146        C147   1.410       .  A
C146        C151   1.400       .  A
C146        C716   1.485       .  S
C147        C148   1.411       .  A
C147        H152   1.083       .  S
C148        C149   1.404       .  A
C148        C653   1.487       .  S
C149        C150   1.394       .  A
C149        H153   1.084       .  S
C150        C151   1.393       .  A
C150        C665   1.471       .  S
C151        H154   1.085       .  S
C155        C156   1.402       .  A
C155        C160   1.417       .  A
C155        C740   1.494       .  S
C156        C157   1.394       .  A
C156        H161   1.085       .  S
C157        C158   1.396       .  A
C157        C668   1.474       .  S
C158        C159   1.401       .  A
C158        H162   1.085       .  S
C159        C160   1.417       .  A
C159        C689   1.492       .  S
C160        H163   1.083       .  S
In164       O166   2.215       .  S
In164       O167   2.234       .  S
In164       O175   2.207   1_546  S
In164       O169   2.254   1_556  S
In164       O171   2.251       .  S
In164       O172   2.233   1_545  S
In164       O173   2.201       .  S
In164       O176   2.218   1_545  S
C165        C896   1.481       .  S
C165        O171   1.274       .  A
C165        O173   1.264       .  A
O166        C174   1.265       .  A
O167        C174   1.271       .  A
C168        C641   1.482   1_545  S
C168        O175   1.264   1_545  A
C168        O169   1.273       .  A
C170        C776   1.476       .  S
C170        O172   1.270       .  A
C170        O176   1.265       .  A
C174        C656   1.475       .  S
In177       O179   2.232       .  S
In177       O180   2.252       .  S
In177       O188   2.213       .  S
In177       O182   2.265       .  S
In177       O184   2.268       .  S
In177       O185   2.243       .  S
In177       O186   2.221       .  S
In177       O189   2.240       .  S
C178        C704   1.495       .  S
C178        O184   1.272       .  A
C178        O186   1.263       .  A
O179        C187   1.264       .  A
O180        C187   1.270       .  A
C181        C605   1.488       .  S
C181        O188   1.263       .  A
C181        O182   1.273       .  A
C183        C617   1.484       .  S
C183        O185   1.269       .  A
C183        O189   1.264       .  A
C187        C629   1.483       .  S
C190        C191   1.401       .  A
C190        C195   1.412       .  A
C190        C581   1.487       .  S
C191        C192   1.392       .  A
C191        H196   1.085       .  S
C192        C193   1.396       .  A
C192        C593   1.469       .  S
C193        C194   1.402       .  A
C193        H197   1.084       .  S
C194        C195   1.411       .  A
C194        C572   1.481       .  S
C195        H198   1.083       .  S
C199        C200   1.401       .  A
C199        C204   1.417       .  A
C199        C632   1.494       .  S
C200        C201   1.392       .  A
C200        H205   1.084       .  S
C201        C202   1.397       .  A
C201        C596   1.471       .  S
C202        C203   1.405       .  A
C202        H206   1.084       .  S
C203        C204   1.418       .  A
C203        C560   1.495       .  S
C204        H207   1.083       .  S
C208        C209   1.407       .  A
C208        C213   1.412   1_655  A
C208        C533   1.491       .  S
C209        C210   1.400   1_655  A
C209        H214   1.084       .  S
C210        C211   1.396       .  A
C210        C548   1.482       .  S
C211        C212   1.399       .  A
C211        H215   1.084       .  S
C212        C213   1.408       .  A
C212        C524   1.485       .  S
C213        H216   1.083       .  S
C217        C218   1.416       .  A
C217        C222   1.407       .  A
C217        C620   1.498       .  S
C218        C219   1.411   1_455  A
C218        H223   1.083       .  S
C219        C220   1.403       .  A
C219        C509   1.495       .  S
C220        C221   1.397   1_655  A
C220        H224   1.084       .  S
C221        C222   1.401       .  A
C221        C545   1.484       .  S
C222        H225   1.084       .  S
In226       O228   2.233       .  S
In226       O229   2.241       .  S
In226       O237   2.199       .  S
In226       O231   2.266   1_545  S
In226       O233   2.263       .  S
In226       O234   2.233       .  S
In226       O235   2.214       .  S
In226       O238   2.223       .  S
C227        C497   1.487       .  S
C227        O233   1.273       .  A
C227        O235   1.263       .  A
O228        C236   1.265       .  A
O229        C236   1.268       .  A
C230        C644   1.483       .  S
C230        O237   1.262       .  A
C230        O231   1.273   1_545  A
C232        C521   1.478       .  S
C232        O234   1.270       .  A
C232        O238   1.264       .  A
C236        C569   1.474       .  S
In239       O241   2.230       .  S
In239       O242   2.226       .  S
In239       O250   2.205       .  S
In239       O244   2.269   1_545  S
In239       O246   2.264   1_545  S
In239       O247   2.233       .  S
In239       O248   2.216       .  S
In239       O251   2.224       .  S
C240        C485   1.486       .  S
C240        O246   1.274   1_545  A
C240        O248   1.263       .  A
O241        C249   1.265       .  A
O242        C249   1.269       .  A
C243        C725   1.488       .  S
C243        O250   1.263       .  A
C243        O244   1.274   1_545  A
C245        C584   1.478       .  S
C245        O247   1.270       .  A
C245        O251   1.266       .  A
C249        C536   1.474       .  S
In252       O254   2.251       .  S
In252       O255   2.249       .  S
In252       O263   2.194       .  S
In252       O257   2.267       .  S
In252       O259   2.273       .  S
In252       O260   2.260       .  S
In252       O261   2.204       .  S
In252       O264   2.238       .  S
C253        C680   1.485       .  S
C253        O259   1.272       .  A
C253        O261   1.261       .  A
O254        C262   1.266       .  A
O255        C262   1.270       .  A
C256        C473   1.481       .  S
C256        O263   1.264       .  A
C256        O257   1.273       .  A
C258        C557   1.487       .  S
C258        O260   1.269       .  A
C258        O264   1.263       .  A
C262        C512   1.490       .  S
C265        C266   1.400       .  A
C265        C270   1.413       .  A
C265        C452   1.487       .  S
C266        C267   1.398       .  A
C266        H271   1.084       .  S
C267        C268   1.399       .  A
C267        C461   1.482       .  S
C268        C269   1.406       .  A
C268        H272   1.084       .  S
C269        C270   1.416       .  A
C269        C437   1.498       .  S
C270        H273   1.083       .  S
C274        C275   1.414       .  A
C274        C279   1.403       .  A
C274        C416   1.493       .  S
C275        C276   1.413       .  A
C275        H280   1.083       .  S
C276        C277   1.404       .  A
C276        C425   1.494       .  S
C277        C278   1.396       .  A
C277        H281   1.083       .  S
C278        C279   1.398       .  A
C278        C464   1.481       .  S
C279        H282   1.084       .  S
In283       O285   2.242       .  S
In283       O286   2.258       .  S
In283       O294   2.225       .  S
In283       O288   2.256       .  S
In283       O290   2.262       .  S
In283       O291   2.245       .  S
In283       O292   2.225       .  S
In283       O295   2.236       .  S
C284        C860   1.487       .  S
C284        O290   1.270       .  A
C284        O292   1.260       .  A
O285        C293   1.262       .  A
O286        C293   1.268       .  A
C287        C608   1.486       .  S
C287        O294   1.264       .  A
C287        O288   1.270       .  A
C289        C401   1.485       .  S
C289        O291   1.270       .  A
C289        O295   1.263       .  A
C293        C449   1.481       .  S
In296       O298   2.231       .  S
In296       O299   2.231       .  S
In296       O307   2.199       .  S
In296       O301   2.255       .  S
In296       O303   2.262       .  S
In296       O304   2.229       .  S
In296       O305   2.185       .  S
In296       O308   2.225       .  S
C297        C476   1.477       .  S
C297        O303   1.275       .  A
C297        O305   1.263       .  A
O298        C306   1.265       .  A
O299        C306   1.270       .  A
C300        C812   1.482       .  S
C300        O307   1.265       .  A
C300        O301   1.274       .  A
C302        C392   1.485       .  S
C302        O304   1.272       .  A
C302        O308   1.268       .  A
C306        C428   1.480       .  S
In309       O311   2.226       .  S
In309       O312   2.233       .  S
In309       O320   2.201       .  S
In309       O314   2.280       .  S
In309       O316   2.260       .  S
In309       O317   2.249   1_545  S
In309       O318   2.214       .  S
In309       O321   2.235   1_545  S
C310        C488   1.489       .  S
C310        O316   1.273       .  A
C310        O318   1.264       .  A
O311        C319   1.265       .  A
O312        C319   1.270       .  A
C313        C833   1.488       .  S
C313        O320   1.260       .  A
C313        O314   1.273       .  A
C315        C413   1.482       .  S
C315        O317   1.269       .  A
C315        O321   1.264       .  A
C319        C377   1.480       .  S
C322        C323   1.417       .  A
C322        C327   1.407       .  A
C322        C404   1.496       .  S
C323        C324   1.414       .  A
C323        H328   1.083       .  S
C324        C325   1.397       .  A
C324        C356   1.483       .  S
C325        C326   1.388       .  A
C325        H329   1.085       .  S
C326        C327   1.393       .  A
C326        C365   1.465       .  S
C327        H330   1.084       .  S
C331        C332   1.401       .  A
C331        C336   1.411       .  A
C331        C380   1.482       .  S
C332        C333   1.392       .  A
C332        H337   1.085       .  S
C333        C334   1.393       .  A
C333        C368   1.465       .  S
C334        C335   1.403       .  A
C334        H338   1.084       .  S
C335        C336   1.413       .  A
C335        C389   1.490       .  S
C336        H339   1.083       .  S
In340       O342   2.217       .  S
In340       O343   2.247       .  S
In340       O351   2.224       .  S
In340       O345   2.262       .  S
In340       O347   2.272       .  S
In340       O348   2.249   1_545  S
In340       O349   2.217       .  S
In340       O352   2.228   1_545  S
C341        C884   1.489       .  S
C341        O347   1.271       .  A
C341        O349   1.260       .  A
O342        C350   1.263       .  A
O343        C350   1.269       .  A
C344        C500   1.489       .  S
C344        O351   1.264       .  A
C344        O345   1.272       .  A
C346        C440   1.482       .  S
C346        O348   1.269       .  A
C346        O352   1.263       .  A
C350        C353   1.476       .  S
C353        C354   1.400       .  A
C353        C358   1.413       .  A
C354        C355   1.400       .  A
C354        H359   1.085       .  S
C355        C356   1.417       .  A
C355        C362   1.446       .  S
C356        C357   1.402       .  A
C357        C358   1.403       .  A
C357        H360   1.085       .  S
C358        C361   1.444       .  S
C361        N363   1.157       .  T
C362        N364   1.157       .  T
C365        C366   1.401       .  A
C365        C370   1.406       .  A
C366        C367   1.393   1_455  A
C366        H371   1.085       .  S
C367        C368   1.408       .  A
C367        C374   1.445       .  S
C368        C369   1.402       .  A
C369        C370   1.400   1_655  A
C369        H372   1.084       .  S
C370        C373   1.443       .  S
C373        N375   1.157       .  T
C374        N376   1.157       .  T
C377        C378   1.402       .  A
C377        C382   1.415       .  A
C378        C379   1.398       .  A
C378        H383   1.085       .  S
C379        C380   1.413       .  A
C379        C386   1.445       .  S
C380        C381   1.403       .  A
C381        C382   1.404       .  A
C381        H384   1.085       .  S
C382        C385   1.444       .  S
C385        N387   1.157       .  T
C386        N388   1.157       .  T
C389        C390   1.403       .  A
C389        C394   1.416       .  A
C390        C391   1.404       .  A
C390        H395   1.085       .  S
C391        C392   1.416       .  A
C391        C398   1.444       .  S
C392        C393   1.402       .  A
C393        C394   1.399       .  A
C393        H396   1.085       .  S
C394        C397   1.445       .  S
C397        N399   1.157       .  T
C398        N400   1.157       .  T
C401        C402   1.408       .  A
C401        C406   1.409       .  A
C402        C403   1.408       .  A
C402        H407   1.085       .  S
C403        C404   1.414       .  A
C403        C410   1.443       .  S
C404        C405   1.409       .  A
C405        C406   1.398       .  A
C405        H408   1.085       .  S
C406        C409   1.444       .  S
C409        N411   1.157       .  T
C410        N412   1.157       .  T
C413        C414   1.405       .  A
C413        C418   1.410       .  A
C414        C415   1.405       .  A
C414        H419   1.085       .  S
C415        C416   1.413       .  A
C415        C422   1.443       .  S
C416        C417   1.409       .  A
C417        C418   1.402       .  A
C417        H420   1.085       .  S
C418        C421   1.444       .  S
C421        N423   1.157       .  T
C422        N424   1.157       .  T
C425        C426   1.406       .  A
C425        C430   1.418       .  A
C426        C427   1.406       .  A
C426        H431   1.084       .  S
C427        C428   1.413       .  A
C427        C434   1.444       .  S
C428        C429   1.400       .  A
C429        C430   1.399       .  A
C429        H432   1.085       .  S
C430        C433   1.445       .  S
C433        N435   1.157       .  T
C434        N436   1.157       .  T
C437        C438   1.411       .  A
C437        C442   1.415       .  A
C438        C439   1.402       .  A
C438        H443   1.085       .  S
C439        C440   1.409       .  A
C439        C446   1.444       .  S
C440        C441   1.404       .  A
C441        C442   1.404       .  A
C441        H444   1.085       .  S
C442        C445   1.442       .  S
C445        N447   1.157       .  T
C446        N448   1.157       .  T
C449        C450   1.404       .  A
C449        C454   1.409       .  A
C450        C451   1.405       .  A
C450        H455   1.085       .  S
C451        C452   1.411       .  A
C451        C458   1.443       .  S
C452        C453   1.407       .  A
C453        C454   1.404       .  A
C453        H456   1.085       .  S
C454        C457   1.444       .  S
C457        N459   1.157       .  T
C458        N460   1.157       .  T
C461        C462   1.404       .  A
C461        C466   1.413       .  A
C462        C463   1.398   1_455  A
C462        H467   1.085       .  S
C463        C464   1.412       .  A
C463        C470   1.444       .  S
C464        C465   1.404       .  A
C465        C466   1.398   1_655  A
C465        H468   1.085       .  S
C466        C469   1.444       .  S
C469        N471   1.157       .  T
C470        N472   1.157       .  T
C473        C474   1.408       .  A
C473        C478   1.412       .  A
C474        C475   1.411       .  A
C474        H479   1.084       .  S
C475        C476   1.411       .  A
C475        C482   1.443       .  S
C476        C477   1.400       .  A
C477        C478   1.393       .  A
C477        H480   1.085       .  S
C478        C481   1.446       .  S
C481        N483   1.157       .  T
C482        N484   1.157       .  T
C485        C486   1.401   1_545  A
C485        C490   1.416       .  A
C486        C487   1.404       .  A
C486        H491   1.085       .  S
C487        C488   1.417   1_565  A
C487        C494   1.444       .  S
C488        C489   1.403       .  A
C489        C490   1.405       .  A
C489        H492   1.085       .  S
C490        C493   1.444       .  S
C493        N495   1.157       .  T
C494        N496   1.157       .  T
C497        C498   1.403   1_545  A
C497        C502   1.415       .  A
C498        C499   1.405       .  A
C498        H503   1.085       .  S
C499        C500   1.416   1_565  A
C499        C506   1.444       .  S
C500        C501   1.403       .  A
C501        C502   1.405       .  A
C501        H504   1.085       .  S
C502        C505   1.444       .  S
C505        N507   1.157       .  T
C506        N508   1.157       .  T
C509        C510   1.405       .  A
C509        C514   1.417       .  A
C510        C511   1.409       .  A
C510        H515   1.084       .  S
C511        C512   1.417       .  A
C511        C518   1.443       .  S
C512        C513   1.402       .  A
C513        C514   1.401       .  A
C513        H516   1.085       .  S
C514        C517   1.445       .  S
C517        N519   1.157       .  T
C518        N520   1.157       .  T
C521        C522   1.400       .  A
C521        C526   1.415       .  A
C522        C523   1.397       .  A
C522        H527   1.085       .  S
C523        C524   1.415       .  A
C523        C530   1.445       .  S
C524        C525   1.403       .  A
C525        C526   1.404       .  A
C525        H528   1.085       .  S
C526        C529   1.444       .  S
C529        N531   1.157       .  T
C530        N532   1.157       .  T
C533        C534   1.407       .  A
C533        C538   1.416       .  A
C534        C535   1.398       .  A
C534        H539   1.085       .  S
C535        C536   1.406       .  A
C535        C542   1.445       .  S
C536        C537   1.403       .  A
C537        C538   1.405       .  A
C537        H540   1.085       .  S
C538        C541   1.444       .  S
C541        N543   1.157       .  T
C542        N544   1.157       .  T
C545        C546   1.406   1_455  A
C545        C550   1.413       .  A
C546        C547   1.401       .  A
C546        H551   1.085       .  S
C547        C548   1.412   1_655  A
C547        C554   1.444       .  S
C548        C549   1.404       .  A
C549        C550   1.396       .  A
C549        H552   1.085       .  S
C550        C553   1.445       .  S
C553        N555   1.157       .  T
C554        N556   1.157       .  T
C557        C558   1.402       .  A
C557        C562   1.415       .  A
C558        C559   1.404       .  A
C558        H563   1.085       .  S
C559        C560   1.416       .  A
C559        C566   1.444       .  S
C560        C561   1.405       .  A
C561        C562   1.407       .  A
C561        H564   1.084       .  S
C562        C565   1.444       .  S
C565        N567   1.157       .  T
C566        N568   1.157       .  T
C569        C570   1.400       .  A
C569        C574   1.410       .  A
C570        C571   1.400       .  A
C570        H575   1.084       .  S
C571        C572   1.411       .  A
C571        C578   1.444       .  S
C572        C573   1.405       .  A
C573        C574   1.406       .  A
C573        H576   1.085       .  S
C574        C577   1.444       .  S
C577        N579   1.157       .  T
C578        N580   1.157       .  T
C581        C582   1.404       .  A
C581        C586   1.416       .  A
C582        C583   1.404       .  A
C582        H587   1.085       .  S
C583        C584   1.414       .  A
C583        C590   1.444       .  S
C584        C585   1.400       .  A
C585        C586   1.398       .  A
C585        H588   1.085       .  S
C586        C589   1.445       .  S
C589        N591   1.157       .  T
C590        N592   1.157       .  T
C593        C594   1.401       .  A
C593        C598   1.407       .  A
C594        C595   1.396       .  A
C594        H599   1.085       .  S
C595        C596   1.409       .  A
C595        C602   1.444       .  S
C596        C597   1.403       .  A
C597        C598   1.399       .  A
C597        H600   1.085       .  S
C598        C601   1.444       .  S
C601        N603   1.157       .  T
C602        N604   1.157       .  T
C605        C606   1.408       .  A
C605        C610   1.412       .  A
C606        C607   1.403       .  A
C606        H611   1.085       .  S
C607        C608   1.411       .  A
C607        C614   1.444       .  S
C608        C609   1.407       .  A
C609        C610   1.405       .  A
C609        H612   1.085       .  S
C610        C613   1.443       .  S
C613        N615   1.157       .  T
C614        N616   1.157       .  T
C617        C618   1.404       .  A
C617        C622   1.410       .  A
C618        C619   1.405       .  A
C618        H623   1.085       .  S
C619        C620   1.416       .  A
C619        C626   1.444       .  S
C620        C621   1.409       .  A
C621        C622   1.403       .  A
C621        H624   1.085       .  S
C622        C625   1.445       .  S
C625        N627   1.157       .  T
C626        N628   1.157       .  T
C629        C630   1.400       .  A
C629        C634   1.414       .  A
C630        C631   1.402       .  A
C630        H635   1.085       .  S
C631        C632   1.420       .  A
C631        C638   1.445       .  S
C632        C633   1.404       .  A
C633        C634   1.406       .  A
C633        H636   1.085       .  S
C634        C637   1.444       .  S
C637        N639   1.157       .  T
C638        N640   1.157       .  T
C641        C642   1.401   1_565  A
C641        C646   1.416       .  A
C642        C643   1.401       .  A
C642        H647   1.085       .  S
C643        C644   1.416       .  A
C643        C650   1.445       .  S
C644        C645   1.402   1_545  A
C645        C646   1.404       .  A
C645        H648   1.085       .  S
C646        C649   1.444       .  S
C649        N651   1.157       .  T
C650        N652   1.157       .  T
C653        C654   1.403       .  A
C653        C658   1.417       .  A
C654        C655   1.402       .  A
C654        H659   1.084       .  S
C655        C656   1.414       .  A
C655        C662   1.445       .  S
C656        C657   1.399       .  A
C657        C658   1.399       .  A
C657        H660   1.085   1_556  S
C658        C661   1.445   1_556  S
C661        N663   1.157       .  T
C662        N664   1.157       .  T
C665        C666   1.402       .  A
C665        C670   1.410       .  A
C666        C667   1.399       .  A
C666        H671   1.085       .  S
C667        C668   1.411       .  A
C667        C674   1.444       .  S
C668        C669   1.402       .  A
C669        C670   1.394       .  A
C669        H672   1.085   1_556  S
C670        C673   1.445   1_556  S
C673        N675   1.157       .  T
C674        N676   1.157       .  T
C677        C678   1.408       .  A
C677        C682   1.410       .  A
C678        C679   1.405       .  A
C678        H683   1.085       .  S
C679        C680   1.412       .  A
C679        C686   1.444       .  S
C680        C681   1.407       .  A
C681        C682   1.401       .  A
C681        H684   1.085       .  S
C682        C685   1.444       .  S
C685        N687   1.157       .  T
C686        N688   1.157       .  T
C689        C690   1.408       .  A
C689        C694   1.411       .  A
C690        C691   1.404   1_556  A
C690        H695   1.085   1_556  S
C691        C692   1.410   1_554  A
C691        C698   1.443       .  S
C692        C693   1.408       .  A
C693        C694   1.406       .  A
C693        H696   1.085       .  S
C694        C697   1.443       .  S
C697        N699   1.157       .  T
C698        N700   1.157       .  T
C701        C702   1.406       .  A
C701        C706   1.409       .  A
C702        C703   1.407       .  A
C702        H707   1.085       .  S
C703        C704   1.415       .  A
C703        C710   1.443       .  S
C704        C705   1.409       .  A
C705        C706   1.403       .  A
C705        H708   1.085       .  S
C706        C709   1.444       .  S
C709        N711   1.157       .  T
C710        N712   1.157       .  T
C713        C714   1.404       .  A
C713        C718   1.409       .  A
C714        C715   1.402       .  A
C714        H719   1.085   1_556  S
C715        C716   1.413       .  A
C715        C722   1.443   1_556  S
C716        C717   1.407       .  A
C717        C718   1.397       .  A
C717        H720   1.085       .  S
C718        C721   1.445       .  S
C721        N723   1.157       .  T
C722        N724   1.157       .  T
C725        C726   1.402   1_545  A
C725        C730   1.418       .  A
C726        C727   1.405       .  A
C726        H731   1.084       .  S
C727        C728   1.416   1_565  A
C727        C734   1.445       .  S
C728        C729   1.401       .  A
C729        C730   1.404       .  A
C729        H732   1.084       .  S
C730        C733   1.444       .  S
C733        N735   1.157       .  T
C734        N736   1.157       .  T
C737        C738   1.407       .  A
C737        C742   1.409       .  A
C738        C739   1.407       .  A
C738        H743   1.085       .  S
C739        C740   1.412       .  A
C739        C746   1.443       .  S
C740        C741   1.409       .  A
C741        C742   1.401       .  A
C741        H744   1.085   1_556  S
C742        C745   1.445   1_556  S
C745        N747   1.157       .  T
C746        N748   1.157       .  T
C749        C750   1.406       .  A
C749        C754   1.413       .  A
C750        C751   1.401       .  A
C750        H755   1.086       .  S
C751        C752   1.409       .  A
C751        C758   1.444       .  S
C752        C753   1.404       .  A
C753        C754   1.404       .  A
C753        H756   1.091   1_556  S
C754        C757   1.443   1_556  S
C757        N759   1.157       .  T
C758        N760   1.157       .  T
C761        C762   1.402       .  A
C761        C766   1.413       .  A
C762        C763   1.401       .  A
C762        H767   1.085   1_556  S
C763        C764   1.416       .  A
C763        C770   1.445   1_556  S
C764        C765   1.404       .  A
C765        C766   1.403       .  A
C765        H768   1.084       .  S
C766        C769   1.444       .  S
C769        N771   1.157       .  T
C770        N772   1.157       .  T
C773        C774   1.403       .  A
C773        C778   1.415       .  A
C774        C775   1.402       .  A
C774        H779   1.085       .  S
C775        C776   1.413       .  A
C775        C782   1.444   1_556  S
C776        C777   1.400       .  A
C777        C778   1.399       .  A
C777        H780   1.085       .  S
C778        C781   1.445       .  S
C781        N783   1.157       .  T
C782        N784   1.157       .  T
C785        C786   1.405       .  A
C785        C790   1.417       .  A
C786        C787   1.405       .  A
C786        H791   1.085       .  S
C787        C788   1.415       .  A
C787        C794   1.444       .  S
C788        C789   1.400       .  A
C789        C790   1.397       .  A
C789        H792   1.085       .  S
C790        C793   1.446       .  S
C793        N795   1.157       .  T
C794        N796   1.157   1_556  T
C797        C798   1.402       .  A
C797        C802   1.410       .  A
C798        C799   1.395       .  A
C798        H803   1.085       .  S
C799        C800   1.409       .  A
C799        C806   1.444       .  S
C800        C801   1.403       .  A
C801        C802   1.400       .  A
C801        H804   1.084   1_556  S
C802        C805   1.444   1_556  S
C805        N807   1.157       .  T
C806        N808   1.157       .  T
C809        C810   1.408       .  A
C809        C814   1.411       .  A
C810        C811   1.404       .  A
C810        H815   1.085       .  S
C811        C812   1.409       .  A
C811        C818   1.443       .  S
C812        C813   1.406       .  A
C813        C814   1.401       .  A
C813        H816   1.085       .  S
C814        C817   1.443       .  S
C817        N819   1.157       .  T
C818        N820   1.157       .  T
C821        C822   1.407       .  A
C821        C826   1.410       .  A
C822        C823   1.401       .  A
C822        H827   1.085       .  S
C823        C824   1.409       .  A
C823        C830   1.444       .  S
C824        C825   1.407       .  A
C825        C826   1.401       .  A
C825        H828   1.085       .  S
C826        C829   1.444       .  S
C829        N831   1.157       .  T
C830        N832   1.157       .  T
C833        C834   1.409       .  A
C833        C838   1.411       .  A
C834        C835   1.402       .  A
C834        H839   1.085       .  S
C835        C836   1.409       .  A
C835        C842   1.444       .  S
C836        C837   1.409   1_545  A
C837        C838   1.406   1_565  A
C837        H840   1.085       .  S
C838        C841   1.443   1_545  S
C841        N843   1.157       .  T
C842        N844   1.157       .  T
C845        C846   1.407   1_545  A
C845        C850   1.410       .  A
C846        C847   1.406       .  A
C846        H851   1.085       .  S
C847        C848   1.413   1_565  A
C847        C854   1.443       .  S
C848        C849   1.408       .  A
C849        C850   1.404       .  A
C849        H852   1.085       .  S
C850        C853   1.444       .  S
C853        N855   1.157       .  T
C854        N856   1.157       .  T
C857        C858   1.406       .  A
C857        C862   1.411       .  A
C858        C859   1.403       .  A
C858        H863   1.085       .  S
C859        C860   1.411       .  A
C859        C866   1.443       .  S
C860        C861   1.409       .  A
C861        C862   1.404       .  A
C861        H864   1.085       .  S
C862        C865   1.444       .  S
C865        N867   1.157       .  T
C866        N868   1.157       .  T
C869        C870   1.408       .  A
C869        C874   1.409       .  A
C870        C871   1.405       .  A
C870        H875   1.085       .  S
C871        C872   1.411       .  A
C871        C878   1.443       .  S
C872        C873   1.408       .  A
C873        C874   1.401       .  A
C873        H876   1.084       .  S
C874        C877   1.445       .  S
C877        N879   1.157       .  T
C878        N880   1.157       .  T
C881        C882   1.407   1_545  A
C881        C886   1.409       .  A
C882        C883   1.405   1_565  A
C882        H887   1.085       .  S
C883        C884   1.412       .  A
C883        C890   1.444   1_545  S
C884        C885   1.409       .  A
C885        C886   1.403       .  A
C885        H888   1.084       .  S
C886        C889   1.443       .  S
C889        N891   1.157       .  T
C890        N892   1.157       .  T
C893        C894   1.401       .  A
C893        C898   1.416   1_545  A
C894        C895   1.402       .  A
C894        H899   1.085       .  S
C895        C896   1.416       .  A
C895        C902   1.445       .  S
C896        C897   1.401   1_545  A
C897        C898   1.402       .  A
C897        H900   1.085       .  S
C898        C901   1.444       .  S
C901        N903   1.157       .  T
C902        N904   1.157       .  T
C905        C906   1.405       .  A
C905        C910   1.418       .  A
C906        C907   1.406       .  A
C906        H911   1.085       .  S
C907        C908   1.416       .  A
C907        C914   1.444       .  S
C908        C909   1.401       .  A
C909        C910   1.401       .  A
C909        H912   1.085       .  S
C910        C913   1.445       .  S
C913        N915   1.157       .  T
C914        N916   1.157       .  T
C917        C918   1.409       .  A
C917        C922   1.411       .  A
C918        C919   1.404       .  A
C918        H923   1.085       .  S
C919        C920   1.410       .  A
C919        C926   1.444       .  S
C920        C921   1.404       .  A
C921        C922   1.402       .  A
C921        H924   1.085       .  S
C922        C925   1.443       .  S
C925        N927   1.157       .  T
C926        N928   1.157       .  T
C929        C930   1.406       .  A
C929        C934   1.411       .  A
C930        C931   1.407       .  A
C930        H935   1.085       .  S
C931        C932   1.415       .  A
C931        C938   1.443       .  S
C932        C933   1.408       .  A
C933        C934   1.399       .  A
C933        H936   1.085       .  S
C934        C937   1.445       .  S
C937        N939   1.157       .  T
C938        N940   1.157       .  T
C941        C942   1.404       .  A
C941        C946   1.413       .  A
C942        C943   1.406       .  A
C942        H947   1.085       .  S
C943        C944   1.415       .  A
C943        C950   1.444       .  S
C944        C945   1.403       .  A
C945        C946   1.401       .  A
C945        H948   1.085       .  S
C946        C949   1.444       .  S
C949        N951   1.157       .  T
C950        N952   1.157       .  T
C953        C954   1.404       .  A
C953        C958   1.409       .  A
C954        C955   1.401       .  A
C954        H959   1.085       .  S
C955        C956   1.412       .  A
C955        C962   1.445       .  S
C956        C957   1.403       .  A
C957        C958   1.396       .  A
C957        H960   1.085       .  S
C958        C961   1.444       .  S
C961        N963   1.157       .  T
C962        N964   1.157       .  T
C965        C966   1.399       .  A
C965        C970   1.415       .  A
C966        C967   1.396       .  A
C966        H971   1.085       .  S
C967        C968   1.414       .  A
C967        C974   1.443       .  S
C968        C969   1.403       .  A
C969        C970   1.405       .  A
C969        H972   1.085       .  S
C970        C973   1.442       .  S
C973        N975   1.157       .  T
C974        N976   1.157       .  T
C977        C978   1.400       .  A
C977        C982   1.412       .  A
C978        C979   1.402       .  A
C978        H983   1.085       .  S
C979        C980   1.415       .  A
C979        C986   1.441       .  S
C980        C981   1.403       .  A
C981        C982   1.401       .  A
C981        H984   1.085       .  S
C982        C985   1.444       .  S
C985        N987   1.157       .  T
C986        N988   1.156       .  T
C989        C990   1.406       .  A
C989        C994   1.416       .  A
C990        C991   1.407       .  A
C990        H995   1.085       .  S
C991        C992   1.415       .  A
C991        C998   1.443       .  S
C992        C993   1.402       .  A
C993        C994   1.400       .  A
C993        H996   1.085       .  S
C994        C997   1.445       .  S
C997        N999   1.157       .  T
C998       N1000   1.157   1_565  T
C1001      C1002   1.411       .  A
C1001      C1006   1.414       .  A
C1002      C1003   1.403       .  A
C1002      H1007   1.084       .  S
C1003      C1004   1.413       .  A
C1003      C1010   1.444       .  S
C1004      C1005   1.408       .  A
C1005      C1006   1.406       .  A
C1005      H1008   1.084       .  S
C1006      C1009   1.443       .  S
C1009      N1011   1.157       .  T
C1010      N1012   1.157       .  T
C1013      C1014   1.401       .  A
C1013      C1018   1.410   1_455  A
C1014      C1015   1.394       .  A
C1014      H1019   1.085       .  S
C1015      C1016   1.408   1_455  A
C1015      C1022   1.444       .  S
C1016      C1017   1.402       .  A
C1017      C1018   1.402       .  A
C1017      H1020   1.085       .  S
C1018      C1021   1.443       .  S
C1021      N1023   1.157       .  T
C1022      N1024   1.157       .  T
