geometry optimzed in LAMMPS
_audit_creation_date              2020-11-30 
_audit_creation_method            'lammps2cif' 
_symmetry_space_group_name_H-M    'P1' 
_symmetry_Int_Tables_number       1 
_symmetry_cell_setting            triclinic 
loop_ 
_symmetry_equiv_pos_as_xyz 
  x,y,z 
_cell_length_a                    35.44929273509239 
_cell_length_b                    35.407383845067464 
_cell_length_c                    38.3856723640203 
_cell_angle_alpha                 89.95335237750389 
_cell_angle_beta                  89.84976100981578 
_cell_angle_gamma                 121.42692377268604 
loop_ 
_atom_site_label 
_atom_site_type_symbol 
_atom_site_fract_x 
_atom_site_fract_y 
_atom_site_fract_z 
_atom_site_charge 
In1        In  0.77684946  0.00327363  0.00214473     1.36870
C2          C  0.74127311  0.00573006  0.06284271     0.77590
O3          O  0.74733033  0.93153790  0.01679106    -0.60860
O4          O  0.81042340  0.96514078  0.99232084    -0.51770
C5          C  0.73260593  0.99868887  0.94386079     0.70250
O6          O  0.73537652  0.02119638  0.97005391    -0.46630
C7          C  0.85401818  0.08019789  0.99970704     0.74960
O8          O  0.71935487  0.99121519  0.03515304    -0.58490
O9          O  0.85138736  0.04339577  0.99961034    -0.48580
O10         O  0.78115494  0.01656358  0.05994413    -0.54920
C11         C  0.77955025  0.92949544  0.00510256     0.85140
O12         O  0.75352888  0.97909711  0.94702557    -0.56810
O13         O  0.81736901  0.07780590  0.00007822    -0.60100
In14       In  0.16940398  0.00486853  0.00414676     1.36870
C15         C  0.20561925  0.99633512  0.94564553     0.77590
O16         O  0.12621438  0.93175525  0.01224630    -0.60860
O17         O  0.09513977  0.96732003  0.99862192    -0.51770
C18         C  0.21164080  0.00908815  0.06307720     0.70250
O19         O  0.22320873  0.04269267  0.04444054    -0.46630
C20         C  0.16460356  0.07738759  0.00402851     0.74960
O21         O  0.22553996  0.00710347  0.97437621    -0.58490
O22         O  0.13882222  0.04371356  0.02200716    -0.48580
O23         O  0.16750164  0.99054829  0.94686381    -0.54920
C24         C  0.09070495  0.93037553  0.00573051     0.85140
O25         O  0.17841775  0.97437299  0.05182119    -0.56810
O26         O  0.19247816  0.07385183  0.98618359    -0.60100
In27       In  0.16046209  0.19173890  0.00307667     1.36870
C28         C  0.20499241  0.22756574  0.06167027     0.77590
O29         O  0.12006063  0.22152923  0.01821532    -0.60860
O30         O  0.08860651  0.16247776  0.98881015    -0.51770
C31         C  0.19578249  0.23220533  0.94258636     0.70250
O32         O  0.20747302  0.25196661  0.97145109    -0.46630
C33         C  0.16276892  0.11778030  0.00383121     0.74960
O34         O  0.21822658  0.24571438  0.03224643    -0.58490
O35         O  0.13133143  0.11985396  0.01711482    -0.48580
O36         O  0.16909625  0.19074805  0.06097813    -0.54920
C37         C  0.08539833  0.19249916  0.00337654     0.85140
O38         O  0.16576137  0.19194408  0.94487157    -0.56810
O39         O  0.19279980  0.15330821  0.99025657    -0.60100
In40       In  0.97248438  0.19927160  0.00024020     1.36870
C41         C  0.96370094  0.23482494  0.05873542     0.77590
O42         O  0.89843744  0.15913206  0.00100275    -0.60860
O43         O  0.93310157  0.12491176  0.99934948    -0.51770
C44         C  0.97765338  0.24027773  0.94005508     0.70250
O45         O  0.00693724  0.25807192  0.96313737    -0.46630
C46         C  0.04497289  0.19418625  0.00268537     0.74960
O47         O  0.97198359  0.25391379  0.02953928    -0.58490
O48         O  0.01146523  0.16772143  0.98519181    -0.48580
O49         O  0.95990237  0.19739666  0.05799855    -0.54920
C50         C  0.89625197  0.12243228  0.99992966     0.85140
O51         O  0.94691278  0.20189751  0.94776777    -0.56810
O52         O  0.04130392  0.22281263  0.01917119    -0.60100
In53       In  0.97131949  0.81143465  0.00326068     1.36870
C54         C  0.97509497  0.77407270  0.94394068     0.77590
O55         O  0.90211957  0.78684320  0.98457140    -0.60860
O56         O  0.93123856  0.84144484  0.01918481    -0.51770
C57         C  0.96572496  0.76504472  0.06038469     0.70250
O58         O  0.98539163  0.76543451  0.03295523    -0.46630
C59         C  0.04791263  0.88865623  0.00582224     0.74960
O60         O  0.95312043  0.75221842  0.97020150    -0.58490
O61         O  0.01292829  0.88535050  0.99470045    -0.48580
O62         O  0.99379409  0.81542210  0.94753890    -0.54920
C63         C  0.89781645  0.81478298  0.00163783     0.85140
O64         O  0.94916891  0.78900606  0.05880975    -0.56810
O65         O  0.04353885  0.85288942  0.01632127    -0.60100
In66       In  0.78006171  0.81280275  0.00391719     1.36870
C67         C  0.73769774  0.77140666  0.94580126     0.77590
O68         O  0.74970965  0.85297618  0.01818219    -0.60860
O69         O  0.81188782  0.88592583  0.99261941    -0.51770
C70         C  0.73896622  0.76890650  0.06198167     0.70250
O71         O  0.71904790  0.76842307  0.03475218    -0.46630
C72         C  0.85667373  0.81531386  0.00172510     0.74960
O73         O  0.73685074  0.75148367  0.97325890    -0.58490
O74         O  0.85184566  0.84296222  0.01879286    -0.48580
O75         O  0.76088019  0.81304711  0.94788391    -0.54920
C76         C  0.78060103  0.88858745  0.00552847     0.85140
O77         O  0.78050460  0.79218572  0.05965594    -0.56810
O78         O  0.82288604  0.78727396  0.98527803    -0.60100
In79       In  0.95707772  0.65559609  0.75229742     1.36870
C80         C  0.87738914  0.64450726  0.75134096     0.77590
O81         O  0.94872682  0.65296271  0.80974081    -0.60860
O82         O  0.00235369  0.71187119  0.78824711    -0.51770
C83         C  0.97253971  0.59005364  0.75622326     0.70250
O84         O  0.93602785  0.58612025  0.76350423    -0.46630
C85         C  0.98060228  0.69612245  0.69101005     0.74960
O86         O  0.88390978  0.61456866  0.74097615    -0.58490
O87         O  0.99834518  0.71598410  0.71908788    -0.48580
O88         O  0.91152488  0.67951290  0.76104556    -0.54920
C89         C  0.97947879  0.69226221  0.81500963     0.85140
O90         O  0.00236542  0.62841245  0.74656713    -0.56810
O91         O  0.95418015  0.65501143  0.69418518    -0.60100
In92       In  0.95131363  0.34354962  0.75273860     1.36870
C93         C  0.87297519  0.26911330  0.75222301     0.77590
O94         O  0.94094962  0.33648813  0.69538402    -0.60860
O95         O  0.99388536  0.33182283  0.71609432    -0.51770
C96         C  0.96804748  0.42587942  0.75678469     0.70250
O97         O  0.93103339  0.39204665  0.76360094    -0.46630
C98         C  0.97327552  0.32677272  0.81407241     0.74960
O99         O  0.87680024  0.30659468  0.74954556    -0.58490
O100        O  0.99998329  0.33937661  0.78867602    -0.48580
O101        O  0.90914638  0.27050187  0.75419172    -0.54920
C102        C  0.97082207  0.32796383  0.68972317     0.85140
O103        O  0.99725273  0.41786620  0.74718792    -0.56810
O104        O  0.93894996  0.32796246  0.80880056    -0.60100
In105      In  0.64400666  0.64955539  0.75379702     1.36870
C106        C  0.71441983  0.64194637  0.75323782     0.77590
O107        O  0.63949954  0.65365692  0.69578165    -0.60860
O108        O  0.67221329  0.71357496  0.72396031    -0.51770
C109        C  0.56266521  0.57914488  0.75179423     0.70250
O110        O  0.59725704  0.57764579  0.74892725    -0.46630
C111        C  0.65431557  0.68183743  0.81758988     0.74960
O112        O  0.67670702  0.60999839  0.74525888    -0.58490
O113        O  0.64587447  0.69875857  0.79201727    -0.48580
O114        O  0.71570156  0.67719876  0.76038890    -0.54920
C115        C  0.66232557  0.69520952  0.69459231     0.85140
O116        O  0.56941123  0.61757557  0.75654897    -0.56810
O117        O  0.65208562  0.64586756  0.81089441    -0.60100
In118      In  0.63261525  0.02358217  0.75426119     1.36870
C119        C  0.70588671  0.10276417  0.75747231     0.77590
O120        O  0.63647137  0.02879565  0.81226462    -0.60860
O121        O  0.64631628  0.98048470  0.78848496    -0.51770
C122        C  0.55048915  0.00751859  0.75002837     0.70250
O123        O  0.58454785  0.04442294  0.74335461    -0.46630
C124        C  0.65051819  0.00342726  0.69235060     0.74960
O125        O  0.66800127  0.09792018  0.75966815    -0.58490
O126        O  0.63579101  0.97538060  0.71685507    -0.48580
O127        O  0.70553531  0.06712763  0.75468932    -0.54920
C128        C  0.64730074  0.00028746  0.81616407     0.85140
O129        O  0.55814034  0.97794953  0.75933264    -0.56810
O130        O  0.65098090  0.03845297  0.69869519    -0.60100
In131      In  0.32070950  0.01876195  0.75204157     1.36870
C132        C  0.32859293  0.09708132  0.75662096     0.77590
O133        O  0.32113627  0.02550604  0.69432325    -0.60860
O134        O  0.26135741  0.97610945  0.71779147    -0.51770
C135        C  0.38676310  0.00413986  0.74717061     0.70250
O136        O  0.39055218  0.04097300  0.74145793    -0.46630
C137        C  0.28715946  0.99577918  0.81567977     0.74960
O138        O  0.36188141  0.09300601  0.75625137    -0.58490
O139        O  0.26643617  0.97344295  0.78914684    -0.48580
O140        O  0.29203771  0.06127293  0.75422304    -0.54920
C141        C  0.28082477  0.99697086  0.69033347     0.85140
O142        O  0.34824683  0.97351270  0.75570659    -0.56810
O143        O  0.32629541  0.02665268  0.80969461    -0.60100
In144      In  0.32483112  0.33141598  0.75346959     1.36870
C145        C  0.32999969  0.26001804  0.76133111     0.77590
O146        O  0.32340160  0.33619636  0.81188127    -0.60860
O147        O  0.26293304  0.30924661  0.78417269    -0.51770
C148        C  0.39620382  0.41235064  0.74932788     0.70250
O149        O  0.39689165  0.37726162  0.74707796    -0.46630
C150        C  0.28793466  0.31226852  0.69089390     0.74960
O151        O  0.36417154  0.29833505  0.76015017    -0.58490
O152        O  0.27816269  0.33212235  0.71316508    -0.48580
O153        O  0.29411564  0.25905964  0.75922303    -0.54920
C154        C  0.28181076  0.31629299  0.81327705     0.85140
O155        O  0.35809820  0.40634140  0.75391679    -0.56810
O156        O  0.31926100  0.30735596  0.69949698    -0.60100
In157      In  0.77292106  0.99828526  0.50504886     1.36870
C158        C  0.73916305  0.00661060  0.44542421     0.77590
O159        O  0.81321298  0.07202777  0.49874420    -0.60860
O160        O  0.84598229  0.03913673  0.51554156    -0.51770
C161        C  0.73252837  0.99329386  0.56548956     0.70250
O162        O  0.71291802  0.96704827  0.54073712    -0.46630
C163        C  0.77716625  0.92525882  0.50174322     0.74960
O164        O  0.72420143  0.00788747  0.47489405    -0.58490
O165        O  0.81104733  0.96352670  0.50223682    -0.48580
O166        O  0.77108605  0.00046561  0.44650537    -0.54920
C167        C  0.84907449  0.07524434  0.50751129     0.85140
O168        O  0.77269245  0.02087128  0.55955857    -0.56810
O169        O  0.74116304  0.92421676  0.50259818    -0.60100
In170      In  0.16616721  0.00402372  0.49944636     1.36870
C171        C  0.20139868  0.00178045  0.56039011     0.77590
O172        O  0.19863971  0.07836553  0.50221144    -0.60860
O173        O  0.12875175  0.03945347  0.50408688    -0.51770
C174        C  0.20967222  0.00968813  0.44066325     0.70250
O175        O  0.21540795  0.99554519  0.46897247    -0.46630
C176        C  0.09155213  0.92531630  0.49363739     0.74960
O177        O  0.22352963  0.01763858  0.53286029    -0.58490
O178        O  0.09355530  0.96130737  0.48790259    -0.48580
O179        O  0.16106876  0.98913387  0.55729338    -0.54920
C180        C  0.16275724  0.07766243  0.50343744     0.85140
O181        O  0.18050404  0.01977214  0.44212913    -0.56810
O182        O  0.12800012  0.92923300  0.50100755    -0.60100
In183      In  0.15786066  0.19182733  0.50330483     1.36870
C184        C  0.19296001  0.23141975  0.56406070     0.77590
O185        O  0.11673063  0.22076050  0.48789567    -0.60860
O186        O  0.08448696  0.15943831  0.51450875    -0.51770
C187        C  0.20267811  0.22750068  0.44443059     0.70250
O188        O  0.21661093  0.24473111  0.47394776    -0.46630
C189        C  0.16074529  0.11808601  0.50338754     0.74960
O190        O  0.19197006  0.25237905  0.53796460    -0.58490
O191        O  0.12481884  0.11748322  0.50189516    -0.48580
O192        O  0.17474192  0.19043893  0.55930397    -0.54920
C193        C  0.08132142  0.19003581  0.50086629     0.85140
O194        O  0.16574691  0.19163970  0.44510612    -0.56810
O195        O  0.19499417  0.15623545  0.50441379    -0.60100
In196      In  0.96756007  0.19541069  0.50503926     1.36870
C197        C  0.96646377  0.23247782  0.44480957     0.77590
O198        O  0.03805627  0.22245901  0.48819223    -0.60860
O199        O  0.00498383  0.16089973  0.51499656    -0.51770
C200        C  0.97071445  0.23993920  0.56286159     0.70250
O201        O  0.94261783  0.22948600  0.53921180    -0.46630
C202        C  0.89111842  0.11775263  0.50772299     0.74960
O203        O  0.98287551  0.25429008  0.47237554    -0.58490
O204        O  0.92769095  0.12137645  0.51411189    -0.48580
O205        O  0.95276378  0.19179637  0.44762813    -0.54920
C206        C  0.04029456  0.19087219  0.50104250     0.85140
O207        O  0.99699262  0.22682180  0.55735455    -0.56810
O208        O  0.89354437  0.15364470  0.50076123    -0.60100
In209      In  0.97203885  0.80676939  0.49900077     1.36870
C210        C  0.98048625  0.77464562  0.55946963     0.77590
O211        O  0.04672585  0.84662712  0.50124728    -0.60860
O212        O  0.01331619  0.87955111  0.48735178    -0.51770
C213        C  0.96142182  0.76251551  0.43983544     0.70250
O214        O  0.95441540  0.74491443  0.46946970    -0.46630
C215        C  0.89737855  0.80769436  0.50406074     0.74960
O216        O  0.98447683  0.76095079  0.53027013    -0.58490
O217        O  0.93510733  0.84211905  0.50592388    -0.48580
O218        O  0.97225762  0.80524293  0.55781770    -0.54920
C219        C  0.04965188  0.88266385  0.49357186     0.85140
O220        O  0.97386965  0.80297614  0.44045149    -0.56810
O221        O  0.89753276  0.77240767  0.50069723    -0.60100
In222      In  0.78305359  0.81182935  0.50307281     1.36870
C223        C  0.74426490  0.77928930  0.56448857     0.77590
O224        O  0.81877546  0.77458665  0.50411993    -0.60860
O225        O  0.85705887  0.84469751  0.50502767    -0.51770
C226        C  0.74790931  0.77139788  0.44280086     0.70250
O227        O  0.73357270  0.75350721  0.47207639    -0.46630
C228        C  0.77938282  0.88510182  0.50103922     0.74960
O229        O  0.72576711  0.76330463  0.53577545    -0.58490
O230        O  0.81536907  0.88600326  0.50070279    -0.48580
O231        O  0.78320099  0.81198456  0.56179015    -0.54920
C232        C  0.85672492  0.80896347  0.50470551     0.85140
O233        O  0.78083577  0.81041516  0.44428717    -0.56810
O234        O  0.74536088  0.84689160  0.50145584    -0.60100
In235      In  0.62179444  0.98799226  0.25398037     1.36870
C236        C  0.61066701  0.90810193  0.25362019     0.77590
O237        O  0.62141305  0.98672257  0.19582819    -0.60860
O238        O  0.68233026  0.03013460  0.22087550    -0.51770
C239        C  0.55727976  0.00479205  0.24974123     0.70250
O240        O  0.55325766  0.96855106  0.24119228    -0.46630
C241        C  0.65905712  0.01004163  0.31618421     0.74960
O242        O  0.58009287  0.91404616  0.26323931    -0.58490
O243        O  0.67904173  0.03127862  0.28898561    -0.48580
O244        O  0.64600164  0.94274939  0.24517634    -0.54920
C245        C  0.66256468  0.01256272  0.19271153     0.85140
O246        O  0.59524731  0.03366692  0.26061909    -0.56810
O247        O  0.61904100  0.98051072  0.31181534    -0.60100
In248      In  0.31152326  0.98370949  0.25350068     1.36870
C249        C  0.23883764  0.90449783  0.25983486     0.77590
O250        O  0.31074322  0.98222866  0.31158443    -0.60860
O251        O  0.29653178  0.02678459  0.28614457    -0.51770
C252        C  0.39409353  0.00149399  0.24971398     0.70250
O253        O  0.36054724  0.96369326  0.24476824    -0.46630
C254        C  0.29367337  0.00088314  0.19041984     0.74960
O255        O  0.27681661  0.90946548  0.25908260    -0.58490
O256        O  0.30610844  0.02914604  0.21456438    -0.48580
O257        O  0.23870584  0.93993997  0.25805500    -0.54920
C258        C  0.29795217  0.00934354  0.31448592     0.85140
O259        O  0.38574066  0.03106645  0.25737227    -0.56810
O260        O  0.29497001  0.96708423  0.19803602    -0.60100
In261      In  0.29734711  0.35359380  0.25324755     1.36870
C262        C  0.22536080  0.35866842  0.25425471     0.77590
O263        O  0.29128114  0.35375249  0.19537144    -0.60860
O264        O  0.28611658  0.29702619  0.21856835    -0.51770
C265        C  0.37830137  0.42500168  0.25345963     0.70250
O266        O  0.34339614  0.42577845  0.25670333    -0.46630
C267        C  0.28523718  0.31554724  0.31528038     0.74960
O268        O  0.26237728  0.39049433  0.24461217    -0.58490
O269        O  0.28363366  0.29602511  0.28729041    -0.48580
O270        O  0.22542283  0.32457197  0.26328948    -0.54920
C271        C  0.28355124  0.31516308  0.19111365     0.85140
O272        O  0.37225740  0.38657558  0.25121837    -0.56810
O273        O  0.29724587  0.35568920  0.31152282    -0.60100
In274      In  0.98529168  0.35097585  0.25251735     1.36870
C275        C  0.06242171  0.35644060  0.25359607     0.77590
O276        O  0.99358943  0.35572138  0.31001981    -0.60860
O277        O  0.94103448  0.29547672  0.28971548    -0.51770
C278        C  0.97724247  0.42157621  0.25303948     0.70250
O279        O  0.01314282  0.42265120  0.25528996    -0.46630
C280        C  0.96249880  0.31393368  0.18971954     0.74960
O281        O  0.05894541  0.38910910  0.24594245    -0.58490
O282        O  0.93946573  0.29474904  0.21647714    -0.48580
O283        O  0.02642901  0.32110133  0.25975437    -0.54920
C284        C  0.96379276  0.31620808  0.31609913     0.85140
O285        O  0.94346261  0.38289382  0.25117380    -0.56810
O286        O  0.99408423  0.35273103  0.19506306    -0.60100
In287      In  0.61550524  0.67410716  0.25404970     1.36870
C288        C  0.60834728  0.74485754  0.25594191     0.77590
O289        O  0.61943657  0.67132071  0.31227355    -0.60860
O290        O  0.67909303  0.69998126  0.28342586    -0.51770
C291        C  0.54387679  0.59331288  0.25149473     0.70250
O292        O  0.54351955  0.62857795  0.24949178    -0.46630
C293        C  0.64938869  0.68538222  0.19056481     0.74960
O294        O  0.57853585  0.70816738  0.26813056    -0.58490
O295        O  0.66585047  0.67664103  0.21627600    -0.48580
O296        O  0.64147303  0.74498301  0.24407280    -0.54920
C297        C  0.66104087  0.69232173  0.31298085     0.85140
O298        O  0.58202665  0.59905724  0.25502377    -0.56810
O299        O  0.61362639  0.68352598  0.19713506    -0.60100
In300      In  0.99123453  0.66723212  0.25112729     1.36870
C301        C  0.07087348  0.74023934  0.25693171     0.77590
O302        O  0.00412880  0.68018268  0.19401202    -0.60860
O303        O  0.94406910  0.67087689  0.21381201    -0.51770
C304        C  0.97948594  0.58654396  0.25199343     0.70250
O305        O  0.01631942  0.62198302  0.25479496    -0.46630
C306        C  0.96174344  0.68010441  0.31081592     0.74960
O307        O  0.06586222  0.70297759  0.25056784    -0.58490
O308        O  0.94963601  0.68615075  0.28157229    -0.48580
O309        O  0.03530032  0.73974671  0.25981785    -0.54920
C310        C  0.96972458  0.68107840  0.18800656     0.85140
O311        O  0.94706264  0.59194971  0.24908633    -0.56810
O312        O  0.98477163  0.66247912  0.30950272    -0.60100
C313        C  0.97632512  0.46302499  0.25237369    -0.05460
C314        C  0.93628679  0.46233293  0.25390332    -0.32890
C315        C  0.93612529  0.50206782  0.25354651     0.36360
C316        C  0.97642781  0.54313425  0.25180715    -0.05820
C317        C  0.01605915  0.54341430  0.24991136    -0.32790
C318        C  0.01637256  0.50430854  0.25023110     0.36270
H319        H  0.90515615  0.43106141  0.25558747     0.16640
O320        O  0.89664634  0.50032747  0.25578142    -0.60280
H321        H  0.04751297  0.57436897  0.24810280     0.16650
O322        O  0.05638062  0.50711797  0.24764275    -0.60380
H323        H  0.06801340  0.51226852  0.27175686     0.43650
H324        H  0.88627305  0.49733712  0.23140479     0.43600
C325        C  0.18496537  0.36054416  0.25505436    -0.05460
C326        C  0.14986866  0.33070584  0.27651857    -0.32890
C327        C  0.11021489  0.32997713  0.27692854     0.36360
C328        C  0.10498713  0.35900183  0.25525882    -0.05820
C329        C  0.14045225  0.38982593  0.23455213    -0.32790
C330        C  0.18027239  0.39057273  0.23415813     0.36270
H331        H  0.15316640  0.30781149  0.29310840     0.16640
O332        O  0.07680925  0.30076357  0.29864666    -0.60280
H333        H  0.13683347  0.41241837  0.21784355     0.16650
O334        O  0.21378129  0.41983359  0.21256795    -0.60380
H335        H  0.20911995  0.40362104  0.19039280     0.43650
H336        H  0.07969535  0.31797587  0.31990876     0.43600
C337        C  0.50236557  0.54939319  0.25015873    -0.05460
C338        C  0.50202600  0.51036890  0.25798153    -0.32890
C339        C  0.46210446  0.46908443  0.25853330     0.36360
C340        C  0.42187142  0.46664527  0.25157319    -0.05820
C341        C  0.42260953  0.50548456  0.24289153    -0.32790
C342        C  0.46203929  0.54632976  0.24206958     0.36870
H343        H  0.53257659  0.51192364  0.26426474     0.16640
O344        O  0.46263644  0.43184733  0.26737163    -0.60280
H345        H  0.39222760  0.50436620  0.23670125     0.16650
O346        O  0.46060425  0.58301088  0.23282796    -0.60380
H347        H  0.45230765  0.59234589  0.25443183     0.43650
H348        H  0.46790885  0.42098470  0.24517755     0.43600
C349        C  0.19727682  0.86117669  0.26190727    -0.05460
C350        C  0.15903575  0.85976153  0.27354136    -0.32890
C351        C  0.11806904  0.82036829  0.27307422     0.36360
C352        C  0.11452785  0.78131809  0.26029788    -0.05820
C353        C  0.15301957  0.78228641  0.24974223    -0.32790
C354        C  0.19422945  0.82191367  0.25037461     0.36270
H355        H  0.16076962  0.88954866  0.28277039     0.16640
O356        O  0.08161457  0.82077613  0.28459758    -0.60280
H357        H  0.15102654  0.75258953  0.24000113     0.16650
O358        O  0.23087684  0.82213701  0.23852250    -0.60380
H359        H  0.23257512  0.82883477  0.21326962     0.43650
H360        H  0.07855410  0.81237828  0.30956268     0.43600
C361        C  0.43906122  0.00930999  0.24658550    -0.05460
C362        C  0.47201462  0.03574349  0.27083701    -0.32890
C363        C  0.51225897  0.03685539  0.27118885     0.36360
C364        C  0.51955349  0.01131788  0.24703955    -0.05820
C365        C  0.48766019  0.98742035  0.22149625    -0.32790
C366        C  0.44789988  0.98649481  0.22101496     0.36270
H367        H  0.46557287  0.05340623  0.29070760     0.16640
O368        O  0.54233314  0.05971173  0.29699408    -0.60280
H369        H  0.49302311  0.96818893  0.20235098     0.16650
O370        O  0.41716100  0.96188160  0.19604249    -0.60380
H371        H  0.42197728  0.98320576  0.17724777     0.43650
H372        H  0.56155756  0.09003658  0.28757772     0.43600
C373        C  0.60661954  0.86469202  0.25235348    -0.05460
C374        C  0.57573462  0.82966075  0.27346120    -0.32890
C375        C  0.57515131  0.78978258  0.27479452     0.36360
C376        C  0.60549642  0.78477785  0.25455996    -0.05820
C377        C  0.63484459  0.81919518  0.23239765    -0.32790
C378        C  0.63564720  0.85880963  0.23118419     0.36270
H379        H  0.55310904  0.83371685  0.28977799     0.16640
O380        O  0.54558470  0.75651319  0.29640127    -0.60280
H381        H  0.65769011  0.81562061  0.21594882     0.16650
O382        O  0.66443981  0.89131008  0.20862122    -0.60380
H383        H  0.69348371  0.90613521  0.22053472     0.43650
H384        H  0.56110689  0.76197533  0.31898753     0.43600
C385        C  0.68618058  0.70940201  0.34569287    -0.05460
C386        C  0.66612089  0.68907061  0.37739224    -0.32890
C387        C  0.68637543  0.70818919  0.40913952     0.36360
C388        C  0.72733285  0.74871878  0.40961510    -0.05820
C389        C  0.74794676  0.76842583  0.37783277    -0.32790
C390        C  0.72789299  0.74897125  0.34607010     0.36270
H391        H  0.63402416  0.65872021  0.37760405     0.16640
O392        O  0.66522792  0.68735997  0.43949760    -0.60280
H393        H  0.77935566  0.79952940  0.37753465     0.16650
O394        O  0.74789056  0.77066539  0.31566407    -0.60380
H395        H  0.76821396  0.76036513  0.30939424     0.43650
H396        H  0.64525060  0.69840278  0.44478726     0.43600
C397        C  0.95615413  0.73812885  0.40712273    -0.05460
C398        C  0.95574373  0.75726231  0.37521978    -0.32890
C399        C  0.95425459  0.73681219  0.34367834     0.36360
C400        C  0.95408704  0.69690604  0.34358016    -0.05820
C401        C  0.95312042  0.67698115  0.37542676    -0.32790
C402        C  0.95336069  0.69685236  0.40705901     0.36270
H403        H  0.95763494  0.78880332  0.37463339     0.16640
O404        O  0.95687672  0.75815381  0.31310653    -0.60280
H405        H  0.95333005  0.64648898  0.37579501     0.16650
O406        O  0.95350757  0.67687975  0.43763789    -0.60380
H407        H  0.92188496  0.65627912  0.44341814     0.43650
H408        H  0.92586408  0.74820819  0.30711949     0.43600
C409        C  0.96324780  0.25322309  0.41225662    -0.05460
C410        C  0.98637782  0.29953676  0.40968526    -0.32890
C411        C  0.98509529  0.32048783  0.37918293     0.36360
C412        C  0.95960873  0.29515321  0.35049852    -0.05820
C413        C  0.93491963  0.24880222  0.35358273    -0.32790
C414        C  0.93682031  0.22780832  0.38399248     0.36270
H415        H  0.00646496  0.31980604  0.43118115     0.16640
O416        O  0.00931480  0.36585829  0.37767679    -0.60280
H417        H  0.91535119  0.22860818  0.33187270     0.16650
O418        O  0.91234488  0.18248228  0.38585606    -0.60380
H419        H  0.93103999  0.17253775  0.37485707     0.43650
H420        H  0.03996172  0.37377291  0.37219241     0.43600
C421        C  0.26983804  0.29229279  0.34914077    -0.05460
C422        C  0.23913634  0.24649009  0.34950549    -0.32890
C423        C  0.21741020  0.22472620  0.38036243     0.36360
C424        C  0.22718849  0.24853457  0.41181509    -0.05820
C425        C  0.25980256  0.29380594  0.41178633    -0.32790
C426        C  0.28054115  0.31581903  0.38076289     0.36270
H427        H  0.23017344  0.22780235  0.32545859     0.16640
O428        O  0.18667020  0.18022077  0.37941255    -0.60280
H429        H  0.26806423  0.31271860  0.43568976     0.16650
O430        O  0.31100203  0.36040675  0.38163096    -0.60380
H431        H  0.29337820  0.37482825  0.38209899     0.43650
H432        H  0.15889506  0.17793758  0.37162733     0.43600
C433        C  0.28142568  0.01631034  0.34780255    -0.05460
C434        C  0.25211268  0.03176748  0.34723265    -0.32890
C435        C  0.22884213  0.03033863  0.37725269     0.36360
C436        C  0.23521471  0.01389123  0.40875046    -0.05820
C437        C  0.26638970  0.00075499  0.40969387    -0.32790
C438        C  0.28934754  0.00185103  0.37964465     0.36270
H439        H  0.24540291  0.04289517  0.32301871     0.16640
O440        O  0.19947963  0.04444133  0.37526083    -0.60280
H441        H  0.27236493  0.98858668  0.43368131     0.16650
O442        O  0.31829189  0.98721868  0.38152223    -0.60380
H443        H  0.34767842  0.01420844  0.38540205     0.43650
H444        H  0.17134130  0.01827994  0.36734310     0.43600
C445        C  0.68145696  0.01594410  0.34980668    -0.05460
C446        C  0.72476080  0.02437647  0.34991082    -0.32890
C447        C  0.74406830  0.02157872  0.38082356     0.36360
C448        C  0.72049639  0.01159901  0.41252123    -0.05820
C449        C  0.67802982  0.00551966  0.41260362    -0.32790
C450        C  0.65833131  0.00716554  0.38153887     0.36270
H451        H  0.74284881  0.03076033  0.32565424     0.16640
O452        O  0.78594659  0.02862296  0.37968805    -0.60280
H453        H  0.65940490  0.99803108  0.43667602     0.16650
O454        O  0.61602979  0.99900169  0.38236866    -0.60380
H455        H  0.61942497  0.02858691  0.38380278     0.43650
H456        H  0.78199801  0.99974386  0.37292066     0.43600
C457        C  0.26298171  0.29247737  0.65856217    -0.05460
C458        C  0.24538968  0.31316219  0.63897100    -0.32890
C459        C  0.22244837  0.29390486  0.60788222     0.36360
C460        C  0.21551162  0.25270239  0.59695624    -0.05820
C461        C  0.23184622  0.23156093  0.61733201    -0.32790
C462        C  0.25585991  0.25128476  0.64751398     0.36270
H463        H  0.25018385  0.34457141  0.64737557     0.16640
O464        O  0.20593476  0.31492908  0.58896793    -0.60280
H465        H  0.22682553  0.19986770  0.60945676     0.16650
O466        O  0.27073910  0.22904523  0.66687295    -0.60380
H467        H  0.29876768  0.23574807  0.65555988     0.43650
H468        H  0.23082588  0.33646533  0.57403812     0.43600
C469        C  0.25852180  0.99175652  0.65656943    -0.05460
C470        C  0.28446500  0.00837591  0.62632757    -0.32890
C471        C  0.26617635  0.01101657  0.59487221     0.36360
C472        C  0.22109332  0.99763221  0.59319783    -0.05820
C473        C  0.19470230  0.97948928  0.62316935    -0.32790
C474        C  0.21299689  0.97625398  0.65461029     0.36270
H475        H  0.31952328  0.02045676  0.62721912     0.16640
O476        O  0.29320185  0.02807301  0.56623273    -0.60280
H477        H  0.15989946  0.96848636  0.62245472     0.16650
O478        O  0.18667357  0.96069058  0.68371792    -0.60380
H479        H  0.17372518  0.92820563  0.68340113     0.43650
H480        H  0.29223375  0.00235553  0.55501777     0.43600
C481        C  0.33113584  0.13972981  0.75998030    -0.05460
C482        C  0.29258458  0.13927876  0.76906542    -0.32890
C483        C  0.29241667  0.17840919  0.77107700     0.36360
C484        C  0.33120471  0.21915316  0.76346111    -0.05820
C485        C  0.37027387  0.21992212  0.75542801    -0.32790
C486        C  0.37048743  0.18050789  0.75376323     0.36270
H487        H  0.26213511  0.10831816  0.77448681     0.16640
O488        O  0.25375646  0.17618956  0.77982866    -0.60280
H489        H  0.40033872  0.25093064  0.74934770     0.16650
O490        O  0.40861825  0.18210088  0.74428900    -0.60380
H491        H  0.42510531  0.18699858  0.76630996     0.43650
H492        H  0.25487876  0.17980920  0.80549377     0.43600
C493        C  0.67041794  0.99895644  0.66008119    -0.05460
C494        C  0.65061429  0.95946954  0.64095519    -0.32890
C495        C  0.67005046  0.95687141  0.60973560     0.36360
C496        C  0.71061104  0.99356310  0.59825172    -0.05820
C497        C  0.73068806  0.03238056  0.61813462    -0.32790
C498        C  0.71073501  0.03547645  0.64841276     0.36270
H499        H  0.61973417  0.93108654  0.64979060     0.16640
O500        O  0.64975030  0.91814537  0.59119320    -0.60280
H501        H  0.76181333  0.06095622  0.60989813     0.16650
O502        O  0.73195494  0.07395812  0.66732406    -0.60380
H503        H  0.72392491  0.09398757  0.65599844     0.43650
H504        H  0.62791505  0.91984474  0.57622818     0.43600
C505        C  0.42532269  0.99884292  0.74444571    -0.05460
C506        C  0.43005409  0.97025076  0.76694081    -0.32890
C507        C  0.47008986  0.97096165  0.76813887     0.36360
C508        C  0.50583165  0.00070615  0.74675740    -0.05820
C509        C  0.49989422  0.02718368  0.72294884    -0.32790
C510        C  0.46009790  0.02614491  0.72145094     0.36270
H511        H  0.40364464  0.94910857  0.78483786     0.16640
O512        O  0.47502397  0.94514114  0.79211453    -0.60280
H513        H  0.52666451  0.04959418  0.70578618     0.16650
O514        O  0.45604653  0.05308962  0.69801390    -0.60380
H515        H  0.44121254  0.03410409  0.67748571     0.43650
H516        H  0.46421072  0.91639968  0.78030090     0.43600
C517        C  0.67954969  0.71986313  0.66161962    -0.05460
C518        C  0.72029673  0.76013481  0.66159990    -0.32890
C519        C  0.74172775  0.78023046  0.63025240     0.36360
C520        C  0.72186465  0.76054334  0.59820356    -0.05820
C521        C  0.68000955  0.72145601  0.59835544    -0.32790
C522        C  0.65899232  0.70105633  0.62965782     0.36270
H523        H  0.73676676  0.77493386  0.68595839     0.16640
O524        O  0.78226995  0.81869611  0.63135053    -0.60280
H525        H  0.66388738  0.70588318  0.57408209     0.16650
O526        O  0.61893797  0.66203820  0.62864934    -0.60380
H527        H  0.59654843  0.67069765  0.63067072     0.43650
H528        H  0.80396865  0.80917641  0.63368380     0.43600
C529        C  0.51848803  0.53837365  0.74915095    -0.05460
C530        C  0.51566167  0.50121507  0.73347828    -0.32890
C531        C  0.47581344  0.46070281  0.73244800     0.36360
C532        C  0.43732781  0.45641925  0.74724040    -0.05820
C533        C  0.43947894  0.49400443  0.76166932    -0.32790
C534        C  0.47975937  0.53489043  0.76263845     0.36270
H535        H  0.54475368  0.50331396  0.72218437     0.16640
O536        O  0.47482917  0.42556437  0.71642071    -0.60280
H537        H  0.41027753  0.49136811  0.77321614     0.16650
O538        O  0.48129659  0.57036882  0.77844817    -0.60380
H539        H  0.47387087  0.58487329  0.75986559     0.43650
H540        H  0.48677480  0.41377858  0.73380249     0.43600
C541        C  0.97513792  0.31089940  0.65562438    -0.05460
C542        C  0.94233033  0.29972835  0.63040236    -0.32890
C543        C  0.94067928  0.27697540  0.60015354     0.36360
C544        C  0.97264515  0.26537057  0.59420285    -0.05820
C545        C  0.00655694  0.27806933  0.61874043    -0.32790
C546        C  0.00802967  0.30068795  0.64919387     0.36270
H547        H  0.91657913  0.30705444  0.63469801     0.16640
O548        O  0.90711450  0.26566966  0.57690738    -0.60280
H549        H  0.03171544  0.26988117  0.61459795     0.16650
O550        O  0.04089808  0.31123450  0.67293575    -0.60380
H551        H  0.06495471  0.34155123  0.66654558     0.43650
H552        H  0.88226046  0.23672236  0.58518643     0.43600
C553        C  0.82996986  0.22681507  0.75366163    -0.05460
C554        C  0.79018475  0.22656590  0.75340561    -0.32890
C555        C  0.74928096  0.18660225  0.75539046     0.36360
C556        C  0.74781489  0.14608336  0.75729084    -0.05820
C557        C  0.78761318  0.14654561  0.75767785    -0.32790
C558        C  0.82825455  0.18618630  0.75611835     0.36270
H559        H  0.79072877  0.25738825  0.75170923     0.16640
O560        O  0.71113359  0.18757616  0.75448955    -0.60280
H561        H  0.78742733  0.11588208  0.75911092     0.16650
O562        O  0.86606689  0.18453049  0.75642644    -0.60380
H563        H  0.87300165  0.18433654  0.78142247     0.43650
H564        H  0.70481306  0.19079573  0.77912979     0.43600
C565        C  0.98714077  0.71901508  0.65735682    -0.05460
C566        C  0.98098174  0.69574712  0.62626133    -0.32890
C567        C  0.98039185  0.71413969  0.59413207     0.36360
C568        C  0.98468093  0.75604372  0.59277486    -0.05820
C569        C  0.99182721  0.77973587  0.62384349    -0.32790
C570        C  0.99360614  0.76178453  0.65590490     0.36270
H571        H  0.97559674  0.66268391  0.62692519     0.16640
O572        O  0.97296980  0.68966708  0.56447960    -0.60280
H573        H  0.99538789  0.81204051  0.62337407     0.16650
O574        O  0.99825542  0.78492417  0.68584280    -0.60380
H575        H  0.03061097  0.80414100  0.68930238     0.43650
H576        H  0.00256427  0.69613739  0.55698231     0.43600
C577        C  0.97832750  0.55183982  0.75909061    -0.05460
C578        C  0.95285949  0.51926156  0.78396286    -0.32890
C579        C  0.95154447  0.47926040  0.78459242     0.36360
C580        C  0.97546617  0.47079916  0.75974086    -0.05820
C581        C  0.00332572  0.50439698  0.73619001    -0.32790
C582        C  0.00490324  0.54491501  0.73577057     0.36270
H583        H  0.93283230  0.52436006  0.80251668     0.16640
O584        O  0.92563025  0.44804828  0.80905687    -0.60280
H585        H  0.02198017  0.49837243  0.71693720     0.16650
O586        O  0.02944106  0.57575285  0.71068222    -0.60380
H587        H  0.05919632  0.59442395  0.72103475     0.43650
H588        H  0.94591662  0.45247644  0.82849254     0.43600
C589        C  0.83383224  0.63996429  0.75295064    -0.05460
C590        C  0.82876122  0.66826529  0.77534067    -0.32890
C591        C  0.78938187  0.66781788  0.77644794     0.36360
C592        C  0.75419790  0.63907856  0.75457798    -0.05820
C593        C  0.75826148  0.60917724  0.73325339    -0.32790
C594        C  0.79801957  0.60960879  0.73221318     0.36270
H595        H  0.85564004  0.69120191  0.79203315     0.16640
O596        O  0.78584075  0.69600559  0.79886238    -0.60280
H597        H  0.73125340  0.58666481  0.71649820     0.16650
O598        O  0.80191500  0.58136324  0.71015961    -0.60380
H599        H  0.81341242  0.59799919  0.68799735     0.43650
H600        H  0.77141398  0.67815265  0.82007520     0.43600
C601        C  0.71533538  0.74447463  0.09390082    -0.05460
C602        C  0.73764799  0.73581833  0.11993983    -0.32890
C603        C  0.71594941  0.71392180  0.15082592     0.36360
C604        C  0.67134356  0.70078228  0.15620000    -0.05820
C605        C  0.64886947  0.70836181  0.12963696    -0.32790
C606        C  0.67041520  0.73012436  0.09891441     0.36270
H607        H  0.77215864  0.74647336  0.11652906     0.16640
O608        O  0.73935626  0.70771098  0.17619933    -0.60280
H609        H  0.61470288  0.69892960  0.13317303     0.16650
O610        O  0.64747978  0.73851492  0.07450915    -0.60380
H611        H  0.65226248  0.76786844  0.08080507     0.43650
H612        H  0.73538197  0.67838575  0.17115553     0.43600
C613        C  0.71356756  0.74773769  0.91391856    -0.05460
C614        C  0.70600743  0.77043259  0.88746286    -0.32890
C615        C  0.68413252  0.74878556  0.85672110     0.36360
C616        C  0.66985778  0.70376356  0.85185455    -0.05820
C617        C  0.67647068  0.68092759  0.87875572    -0.32790
C618        C  0.69816577  0.70244803  0.90941550     0.36270
H619        H  0.71746489  0.80521961  0.89044388     0.16640
O620        O  0.67911765  0.77264654  0.83095246    -0.60280
H621        H  0.66620826  0.64646141  0.87556878     0.16650
O622        O  0.70529073  0.67905559  0.93432072    -0.60380
H623        H  0.73429465  0.68282553  0.92829005     0.43650
H624        H  0.65031087  0.76988652  0.83590252     0.43600
C625        C  0.96249112  0.69625187  0.15413920    -0.05460
C626        C  0.98579175  0.69572706  0.12472818    -0.32890
C627        C  0.98573763  0.71644531  0.09369527     0.36360
C628        C  0.96287152  0.73920410  0.09180666    -0.05820
C629        C  0.93805437  0.73816862  0.12081182    -0.32790
C630        C  0.93742773  0.71663259  0.15168081     0.36270
H631        H  0.00522212  0.68019872  0.12606014     0.16640
O632        O  0.00995094  0.71594838  0.06597162    -0.60280
H633        H  0.91989803  0.75504642  0.11991007     0.16650
O634        O  0.91491207  0.71865626  0.18001881    -0.60380
H635        H  0.88450116  0.69262791  0.17779950     0.43650
H636        H  0.98945161  0.68868171  0.05288226     0.43600
C637        C  0.97897745  0.75299250  0.91182566    -0.05460
C638        C  0.00587921  0.77938803  0.88410123    -0.32890
C639        C  0.00892032  0.76016959  0.85307144     0.36360
C640        C  0.98451403  0.71376905  0.84922547    -0.05820
C641        C  0.95905146  0.68746752  0.87746720    -0.32790
C642        C  0.95627903  0.70654879  0.90848169     0.36270
H643        H  0.02404906  0.81513686  0.88618641     0.16640
O644        O  0.03372566  0.78718585  0.82605887    -0.60280
H645        H  0.93988180  0.65173330  0.87518133     0.16650
O646        O  0.92976418  0.67929381  0.93477934    -0.60380
H647        H  0.94892211  0.67218042  0.94853670     0.43650
H648        H  0.06372389  0.79220604  0.82947815     0.43600
C649        C  0.95614778  0.29270899  0.15520965    -0.05460
C650        C  0.97845785  0.31957321  0.12625000    -0.32890
C651        C  0.98019393  0.30110703  0.09454602     0.36360
C652        C  0.95945013  0.25486079  0.09121584    -0.05820
C653        C  0.93579369  0.22779572  0.11974626    -0.32790
C654        C  0.93362325  0.24633515  0.15144589     0.36270
H655        H  0.99612037  0.35529987  0.12850914     0.16640
O656        O  0.00393771  0.32878297  0.06747822    -0.60280
H657        H  0.91944057  0.19213431  0.11763904     0.16650
O658        O  0.91186348  0.21888221  0.17911284    -0.60380
H659        H  0.88092162  0.21173660  0.17722500     0.43650
H660        H  0.03440651  0.33481573  0.07030321     0.43600
C661        C  0.97825634  0.26237076  0.90707545    -0.05460
C662        C  0.01563890  0.30324856  0.89727718    -0.32890
C663        C  0.01554257  0.32477418  0.86646355     0.36360
C664        C  0.97731956  0.30597316  0.84581923    -0.05820
C665        C  0.94035885  0.26526661  0.85549766    -0.32790
C666        C  0.94073653  0.24317509  0.88536593     0.36270
H667        H  0.04483027  0.31856846  0.91353874     0.16640
O668        O  0.05186141  0.36494239  0.85777373    -0.60280
H669        H  0.91085586  0.25016585  0.83951618     0.16650
O670        O  0.90352237  0.20339777  0.89355101    -0.60380
H671        H  0.90660137  0.18089528  0.88062415     0.43650
H672        H  0.07069187  0.35782044  0.84350284     0.43600
C673        C  0.22885508  0.24866477  0.09428885    -0.05460
C674        C  0.25913606  0.29450477  0.09471656    -0.32890
C675        C  0.27867839  0.31641087  0.12588132     0.36360
C676        C  0.26919713  0.29228497  0.15721483    -0.05820
C677        C  0.24100316  0.24608901  0.15646074    -0.32790
C678        C  0.22035206  0.22431966  0.12544289     0.36270
H679        H  0.26634532  0.31383275  0.07105308     0.16640
O680        O  0.30685325  0.36148524  0.12544507    -0.60280
H681        H  0.23309642  0.22699934  0.18031804     0.16650
O682        O  0.19188951  0.17930513  0.12593183    -0.60380
H683        H  0.16320661  0.17474907  0.13403735     0.43650
H684        H  0.28743961  0.37393025  0.12529135     0.43600
C685        C  0.21592050  0.25428102  0.90895659    -0.05460
C686        C  0.24458731  0.30056648  0.90756722    -0.32890
C687        C  0.26529824  0.32183920  0.87623517     0.36360
C688        C  0.25698980  0.29689858  0.84571994    -0.05820
C689        C  0.22780447  0.25095768  0.84686339    -0.32790
C690        C  0.20765672  0.22953674  0.87811291     0.36270
H691        H  0.25140139  0.32027626  0.93089346     0.16640
O692        O  0.29378720  0.36682400  0.87575204    -0.60280
H693        H  0.22210566  0.23127903  0.82364925     0.16650
O694        O  0.18194141  0.18420083  0.87848899    -0.60380
H695        H  0.15223530  0.17715734  0.87093677     0.43650
H696        H  0.27540194  0.37922267  0.86899825     0.43600
C697        C  0.27550341  0.00443289  0.15680326    -0.05460
C698        C  0.28552057  0.04562912  0.14346995    -0.32890
C699        C  0.26589980  0.04817800  0.11245805     0.36360
C700        C  0.23483281  0.00904746  0.09504756    -0.05820
C701        C  0.22506501  0.96811944  0.10854136    -0.32790
C702        C  0.24522977  0.96555222  0.13876975     0.36270
H703        H  0.30845932  0.07579915  0.15710514     0.16640
O704        O  0.27610603  0.08883389  0.10019461    -0.60280
H705        H  0.20139158  0.93758991  0.09565361     0.16650
O706        O  0.23299861  0.92446648  0.15151903    -0.60380
H707        H  0.25168809  0.91575253  0.13881593     0.43650
H708        H  0.30283505  0.09923801  0.08552263     0.43600
C709        C  0.26620622  0.98959780  0.85030985    -0.05460
C710        C  0.22007982  0.96928404  0.85254821    -0.32890
C711        C  0.19980250  0.97070685  0.88348951     0.36360
C712        C  0.22560628  0.99170171  0.91323269    -0.05820
C713        C  0.27144691  0.00969635  0.91156215    -0.32790
C714        C  0.29184082  0.00931891  0.88036983     0.36270
H715        H  0.19975793  0.95421908  0.82972939     0.16640
O716        O  0.15474837  0.95154607  0.88427150    -0.60280
H717        H  0.29187791  0.02563551  0.93416977     0.16650
O718        O  0.33692478  0.02869686  0.87950079    -0.60380
H719        H  0.34885613  0.06090746  0.87718370     0.43650
H720        H  0.14922273  0.97416512  0.87450230     0.43600
C721        C  0.68547625  0.01758184  0.15923213    -0.05460
C722        C  0.66164819  0.00818511  0.12807101    -0.32890
C723        C  0.67966447  0.00504612  0.09650914     0.36360
C724        C  0.72203632  0.01045133  0.09572303    -0.05820
C725        C  0.74642007  0.02117953  0.12675543    -0.32790
C726        C  0.72854468  0.02484772  0.15829093     0.36270
H727        H  0.62840661  0.00224658  0.12828351     0.16640
O728        O  0.65504237  0.99575824  0.06675510    -0.60280
H729        H  0.77909591  0.02570794  0.12679065     0.16650
O730        O  0.75215122  0.03214532  0.18837515    -0.60380
H731        H  0.77083852  0.06478841  0.19045770     0.43650
H732        H  0.66318935  0.02501376  0.05698751     0.43600
C733        C  0.70714325  0.99571119  0.91224305    -0.05460
C734        C  0.70652569  0.97092284  0.88343431    -0.32890
C735        C  0.68479468  0.96970935  0.85257937     0.36360
C736        C  0.66344510  0.99389624  0.84997470    -0.05820
C737        C  0.66242143  0.01701232  0.87931709    -0.32790
C738        C  0.68371128  0.01787966  0.91020564     0.36270
H739        H  0.72381754  0.95318012  0.88448852     0.16640
O740        O  0.68684711  0.94678487  0.82460105    -0.60280
H741        H  0.64618116  0.03577475  0.87805683     0.16650
O742        O  0.68267988  0.04195832  0.93776325    -0.60380
H743        H  0.65587009  0.02100106  0.95126070     0.43650
H744        H  0.66060577  0.91648612  0.82700151     0.43600
loop_ 
_geom_bond_atom_site_label_1 
_geom_bond_atom_site_label_2 
_geom_bond_distance 
_geom_bond_site_symmetry_2 
_ccdc_geom_bond_type 
In1           O3   2.255   1_545  S
In1           O4   2.249   1_544  S
In1          O12   2.273   1_544  S
In1           O6   2.250   1_554  S
In1           O8   2.240   1_545  S
In1           O9   2.257   1_554  S
In1          O10   2.257       .  S
In1          O13   2.254       .  S
C2            O8   1.260   1_545  A
C2           O10   1.262       .  A
C2          C724   1.483       .  S
O3           C11   1.263       .  A
O4           C11   1.260   1_556  A
C5           O12   1.258       .  A
C5            O6   1.255   1_565  A
C5          C733   1.485       .  S
C7            O9   1.257       .  A
C7           O13   1.257   1_556  A
C7           C50   1.464       .  S
C11          C76   1.468       .  S
In14         O16   2.237   1_545  S
In14         O17   2.258   1_544  S
In14         O25   2.231   1_545  S
In14         O19   2.276       .  S
In14         O21   2.257   1_554  S
In14         O22   2.256       .  S
In14         O23   2.250   1_544  S
In14         O26   2.241   1_554  S
C15          O21   1.259   1_565  A
C15          O23   1.257       .  A
C15         C712   1.481       .  S
O16          C24   1.260       .  A
O17          C24   1.263   1_556  A
C18          O25   1.256   1_545  A
C18          O19   1.259       .  A
C18         C700   1.479       .  S
C20          O22   1.262       .  A
C20          O26   1.260   1_554  A
C20          C33   1.465       .  S
C24          C59   1.465       .  S
In27         O29   2.252       .  S
In27         O30   2.262   1_554  S
In27         O38   2.241   1_554  S
In27         O32   2.253   1_554  S
In27         O34   2.244       .  S
In27         O35   2.256       .  S
In27         O36   2.247       .  S
In27         O39   2.243   1_554  S
C28          O34   1.261       .  A
C28          O36   1.261       .  A
C28         C673   1.480       .  S
O29          C37   1.256       .  A
O30          C37   1.258   1_556  A
C31          O38   1.261       .  A
C31          O32   1.261       .  A
C31         C685   1.483       .  S
C33          O35   1.261       .  A
C33          O39   1.260   1_554  A
C37          C46   1.465       .  S
In40         O42   2.241       .  S
In40         O43   2.247   1_554  S
In40         O51   2.233   1_554  S
In40         O45   2.278   1_654  S
In40         O47   2.247       .  S
In40         O48   2.258   1_654  S
In40         O49   2.254       .  S
In40         O52   2.250   1_655  S
C41          O47   1.261       .  A
C41          O49   1.261       .  A
C41         C652   1.481       .  S
O42          C50   1.261   1_554  A
O43          C50   1.263       .  A
C44          O51   1.255       .  A
C44          O45   1.258   1_655  A
C44         C661   1.482       .  S
C46          O48   1.259   1_554  A
C46          O52   1.258       .  A
In53         O55   2.252   1_554  S
In53         O56   2.257       .  S
In53         O64   2.265       .  S
In53         O58   2.247       .  S
In53         O60   2.241   1_554  S
In53         O61   2.259   1_654  S
In53         O62   2.259   1_554  S
In53         O65   2.247   1_655  S
C54          O60   1.260       .  A
C54          O62   1.261       .  A
C54         C637   1.484       .  S
O55          C63   1.261   1_556  A
O56          C63   1.260       .  A
C57          O64   1.260       .  A
C57          O58   1.257       .  A
C57         C628   1.484       .  S
C59          O61   1.259   1_554  A
C59          O65   1.259       .  A
C63          C72   1.468       .  S
In66         O68   2.253       .  S
In66         O69   2.261   1_554  S
In66         O77   2.263       .  S
In66         O71   2.233       .  S
In66         O73   2.234   1_554  S
In66         O74   2.262       .  S
In66         O75   2.259   1_554  S
In66         O78   2.249   1_554  S
C67          O73   1.259       .  A
C67          O75   1.262       .  A
C67         C613   1.480       .  S
O68          C76   1.257       .  A
O69          C76   1.261   1_556  A
C70          O77   1.261       .  A
C70          O71   1.258       .  A
C70         C601   1.479       .  S
C72          O74   1.262       .  A
C72          O78   1.258   1_554  A
In79         O81   2.219       .  S
In79         O82   2.265   1_655  S
In79         O90   2.272   1_655  S
In79         O84   2.208       .  S
In79         O86   2.259       .  S
In79         O87   2.250       .  S
In79         O88   2.205       .  S
In79         O91   2.233       .  S
C80          O86   1.261       .  A
C80          O88   1.256       .  A
C80         C589   1.468       .  S
O81          C89   1.259       .  A
O82          C89   1.266   1_455  A
C83          O90   1.265   1_655  A
C83          O84   1.258       .  A
C83         C577   1.475       .  S
C85          O87   1.263       .  A
C85          O91   1.260       .  A
C85         C565   1.477       .  S
C89         C640   1.483       .  S
In92         O94   2.226       .  S
In92         O95   2.252       .  S
In92        O103   2.269       .  S
In92         O97   2.220       .  S
In92         O99   2.259       .  S
In92        O100   2.276       .  S
In92        O101   2.212       .  S
In92        O104   2.206       .  S
C93          O99   1.266       .  A
C93         O101   1.260       .  A
C93         C553   1.479       .  S
O94         C102   1.262       .  A
O95         C102   1.265       .  A
C96         O103   1.262       .  A
C96          O97   1.258       .  A
C96         C580   1.475       .  S
C98         O100   1.265       .  A
C98         O104   1.256       .  A
C98         C664   1.469       .  S
C102        C541   1.483       .  S
In105       O107   2.243       .  S
In105       O108   2.253       .  S
In105       O116   2.272       .  S
In105       O110   2.206       .  S
In105       O112   2.259       .  S
In105       O113   2.253       .  S
In105       O114   2.212       .  S
In105       O117   2.224       .  S
C106        O112   1.260       .  A
C106        O114   1.256       .  A
C106        C592   1.467       .  S
O107        C115   1.257       .  A
O108        C115   1.258       .  A
C109        O116   1.266       .  A
C109        O110   1.259       .  A
C109        C529   1.480       .  S
C111        O113   1.265       .  A
C111        O117   1.261       .  A
C111        C616   1.482       .  S
C115        C517   1.475       .  S
In118       O120   2.233       .  S
In118       O121   2.250   1_545  S
In118       O129   2.273   1_545  S
In118       O123   2.222       .  S
In118       O125   2.259       .  S
In118       O126   2.278   1_545  S
In118       O127   2.214       .  S
In118       O130   2.210       .  S
C119        O125   1.265       .  A
C119        O127   1.260       .  A
C119        C556   1.478       .  S
O120        C128   1.262       .  A
O121        C128   1.264   1_565  A
C122        O129   1.262   1_545  A
C122        O123   1.258       .  A
C122        C508   1.477       .  S
C124        O126   1.264   1_545  A
C124        O130   1.256       .  A
C124        C493   1.473   1_545  S
C128        C736   1.484   1_545  S
In131       O133   2.227       .  S
In131       O134   2.267   1_545  S
In131       O142   2.274   1_545  S
In131       O136   2.208       .  S
In131       O138   2.251       .  S
In131       O139   2.251   1_545  S
In131       O140   2.214       .  S
In131       O143   2.227       .  S
C132        O138   1.261       .  A
C132        O140   1.258       .  A
C132        C481   1.471       .  S
O133        C141   1.258   1_545  A
O134        C141   1.263       .  A
C135        O142   1.265   1_545  A
C135        O136   1.258       .  A
C135        C505   1.477   1_545  S
C137        O139   1.266       .  A
C137        O143   1.261   1_565  A
C137        C709   1.480       .  S
C141        C469   1.481       .  S
In144       O146   2.251       .  S
In144       O147   2.238       .  S
In144       O155   2.273       .  S
In144       O149   2.212       .  S
In144       O151   2.256       .  S
In144       O152   2.278       .  S
In144       O153   2.211       .  S
In144       O156   2.211       .  S
C145        O151   1.263       .  A
C145        O153   1.258       .  A
C145        C484   1.472       .  S
O146        C154   1.261       .  A
O147        C154   1.260       .  A
C148        O155   1.265       .  A
C148        O149   1.258       .  A
C148        C532   1.481       .  S
C150        O152   1.264       .  A
C150        O156   1.255       .  A
C150        C457   1.475       .  S
C154        C688   1.469       .  S
In157       O159   2.241   1_565  S
In157       O160   2.250   1_565  S
In157       O168   2.242   1_565  S
In157       O162   2.270       .  S
In157       O164   2.250   1_565  S
In157       O165   2.255       .  S
In157       O166   2.251   1_565  S
In157       O169   2.253       .  S
C158        O164   1.259       .  A
C158        O166   1.260       .  A
C158        C448   1.480       .  S
O159        C167   1.262       .  A
O160        C167   1.263       .  A
C161        O168   1.257   1_565  A
C161        O162   1.257       .  A
C161        C496   1.479       .  S
C163        O165   1.258       .  A
C163        O169   1.258       .  A
C163        C228   1.465       .  S
C167        C202   1.465       .  S
In170       O172   2.260       .  S
In170       O173   2.258       .  S
In170       O181   2.260       .  S
In170       O175   2.245   1_545  S
In170       O177   2.237       .  S
In170       O178   2.249   1_545  S
In170       O179   2.267   1_545  S
In170       O182   2.260   1_545  S
C171        O177   1.258       .  A
C171        O179   1.262   1_545  A
C171        C472   1.485   1_545  S
O172        C180   1.260       .  A
O173        C180   1.258       .  A
C174        O181   1.259       .  A
C174        O175   1.257   1_545  A
C174        C436   1.482       .  S
C176        O178   1.258       .  A
C176        O182   1.258       .  A
C176        C219   1.466       .  S
C180        C189   1.470       .  S
In183       O185   2.255       .  S
In183       O186   2.269       .  S
In183       O194   2.251       .  S
In183       O188   2.243       .  S
In183       O190   2.267       .  S
In183       O191   2.256       .  S
In183       O192   2.240       .  S
In183       O195   2.248       .  S
C184        O190   1.258       .  A
C184        O192   1.257       .  A
C184        C460   1.476       .  S
O185        C193   1.257       .  A
O186        C193   1.260       .  A
C187        O194   1.262       .  A
C187        O188   1.261       .  A
C187        C424   1.482       .  S
C189        O191   1.264       .  A
C189        O195   1.261       .  A
C193        C206   1.470       .  S
In196       O198   2.253   1_655  S
In196       O199   2.256   1_655  S
In196       O207   2.272       .  S
In196       O201   2.251       .  S
In196       O203   2.242       .  S
In196       O204   2.263       .  S
In196       O205   2.255       .  S
In196       O208   2.248       .  S
C197        O203   1.261       .  A
C197        O205   1.262       .  A
C197        C409   1.483       .  S
O198        C206   1.262       .  A
O199        C206   1.261       .  A
C200        O207   1.256       .  A
C200        O201   1.255       .  A
C200        C544   1.484       .  S
C202        O204   1.259       .  A
C202        O208   1.257       .  A
In209       O211   2.261   1_655  S
In209       O212   2.246   1_655  S
In209       O220   2.254       .  S
In209       O214   2.248       .  S
In209       O216   2.239       .  S
In209       O217   2.249       .  S
In209       O218   2.258       .  S
In209       O221   2.260       .  S
C210        O216   1.258       .  A
C210        O218   1.262       .  A
C210        C568   1.481       .  S
O211        C219   1.260       .  A
O212        C219   1.258       .  A
C213        O220   1.260       .  A
C213        O214   1.257       .  A
C213        C397   1.481       .  S
C215        O217   1.257       .  A
C215        O221   1.259       .  A
C215        C232   1.465       .  S
In222       O224   2.255       .  S
In222       O225   2.249       .  S
In222       O233   2.258       .  S
In222       O227   2.235       .  S
In222       O229   2.235       .  S
In222       O230   2.254       .  S
In222       O231   2.254       .  S
In222       O234   2.250       .  S
C223        O229   1.258       .  A
C223        O231   1.260       .  A
C223        C520   1.480       .  S
O224        C232   1.259       .  A
O225        C232   1.259       .  A
C226        O233   1.262       .  A
C226        O227   1.258       .  A
C226        C388   1.482       .  S
C228        O230   1.259       .  A
C228        O234   1.258       .  A
In235       O237   2.233       .  S
In235       O238   2.256   1_565  S
In235       O246   2.270   1_565  S
In235       O240   2.209       .  S
In235       O242   2.264       .  S
In235       O243   2.247   1_565  S
In235       O244   2.202       .  S
In235       O247   2.231       .  S
C236        O242   1.261       .  A
C236        O244   1.255       .  A
C236        C373   1.468       .  S
O237        C245   1.260   1_565  A
O238        C245   1.264       .  A
C239        O246   1.265       .  A
C239        O240   1.259   1_545  A
C239        C364   1.475       .  S
C241        O243   1.264       .  A
C241        O247   1.260   1_545  A
C241        C445   1.474       .  S
C245        C721   1.479       .  S
In248       O250   2.230       .  S
In248       O251   2.241   1_565  S
In248       O259   2.271   1_565  S
In248       O253   2.217       .  S
In248       O255   2.257       .  S
In248       O256   2.276   1_565  S
In248       O257   2.218       .  S
In248       O260   2.207       .  S
C249        O255   1.264       .  A
C249        O257   1.259       .  A
C249        C349   1.474       .  S
O250        C258   1.262   1_565  A
O251        C258   1.265       .  A
C252        O259   1.262       .  A
C252        O253   1.258   1_545  A
C252        C361   1.473       .  S
C254        O256   1.264       .  A
C254        O260   1.256   1_545  A
C254        C697   1.478       .  S
C258        C433   1.479       .  S
In261       O263   2.233       .  S
In261       O264   2.262       .  S
In261       O272   2.277       .  S
In261       O266   2.206       .  S
In261       O268   2.246       .  S
In261       O269   2.249       .  S
In261       O270   2.229       .  S
In261       O273   2.238       .  S
C262        O268   1.258       .  A
C262        O270   1.257       .  A
C262        C325   1.468       .  S
O263        C271   1.257       .  A
O264        C271   1.262       .  A
C265        O272   1.265       .  A
C265        O266   1.258       .  A
C265        C340   1.480       .  S
C267        O269   1.263       .  A
C267        O273   1.261       .  A
C267        C421   1.480       .  S
C271        C676   1.478       .  S
In274       O276   2.222       .  S
In274       O277   2.265       .  S
In274       O285   2.286       .  S
In274       O279   2.194   1_655  S
In274       O281   2.241   1_655  S
In274       O282   2.272       .  S
In274       O283   2.221   1_655  S
In274       O286   2.223       .  S
C275        O281   1.260       .  A
C275        O283   1.258       .  A
C275        C328   1.465       .  S
O276        C284   1.259       .  A
O277        C284   1.266       .  A
C278        O285   1.267       .  A
C278        O279   1.256   1_655  A
C278        C313   1.485       .  S
C280        O282   1.265       .  A
C280        O286   1.257       .  A
C280        C649   1.482       .  S
C284        C412   1.484       .  S
In287       O289   2.245       .  S
In287       O290   2.248       .  S
In287       O298   2.276       .  S
In287       O292   2.203       .  S
In287       O294   2.260       .  S
In287       O295   2.262       .  S
In287       O296   2.209       .  S
In287       O299   2.216       .  S
C288        O294   1.260       .  A
C288        O296   1.256       .  A
C288        C376   1.470       .  S
O289        C297   1.259       .  A
O290        C297   1.259       .  A
C291        O298   1.266       .  A
C291        O292   1.258       .  A
C291        C337   1.483       .  S
C293        O295   1.265       .  A
C293        O299   1.260       .  A
C293        C604   1.481       .  S
C297        C385   1.477       .  S
In300       O302   2.236   1_655  S
In300       O303   2.259       .  S
In300       O311   2.283       .  S
In300       O305   2.205   1_655  S
In300       O307   2.260   1_655  S
In300       O308   2.239       .  S
In300       O309   2.228   1_655  S
In300       O312   2.249       .  S
C301        O307   1.260       .  A
C301        O309   1.257       .  A
C301        C352   1.477       .  S
O302        C310   1.258   1_455  A
O303        C310   1.261       .  A
C304        O311   1.265       .  A
C304        O305   1.258   1_655  A
C304        C316   1.483       .  S
C306        O308   1.260       .  A
C306        O312   1.261       .  A
C306        C400   1.476       .  S
C310        C625   1.479       .  S
C313        C314   1.408       .  A
C313        C318   1.412   1_655  A
C314        C315   1.410       .  A
C314        H319   1.083       .  S
C315        C316   1.412       .  A
C315        O320   1.371       .  S
C316        C317   1.401   1_655  A
C317        C318   1.391       .  A
C317        H321   1.084       .  S
C318        O322   1.372       .  S
O320        H324   0.992       .  S
O322        H323   0.992       .  S
C325        C326   1.402       .  A
C325        C330   1.409       .  A
C326        C327   1.392       .  A
C326        H331   1.084       .  S
C327        C328   1.407       .  A
C327        O332   1.372       .  S
C328        C329   1.402       .  A
C329        C330   1.398       .  A
C329        H333   1.084       .  S
C330        O334   1.372       .  S
O332        H336   0.992       .  S
O334        H335   0.992       .  S
C337        C338   1.408       .  A
C337        C342   1.412       .  A
C338        C339   1.408       .  A
C338        H343   1.083       .  S
C339        C340   1.409       .  A
C339        O344   1.371       .  S
C340        C341   1.402       .  A
C341        C342   1.392       .  A
C341        H345   1.084       .  S
C342        O346   1.372       .  S
O344        H348   0.992       .  S
O346        H347   0.992       .  S
C349        C350   1.402       .  A
C349        C354   1.409       .  A
C350        C351   1.394       .  A
C350        H355   1.084       .  S
C351        C352   1.410       .  A
C351        O356   1.372       .  S
C352        C353   1.406       .  A
C353        C354   1.402       .  A
C353        H357   1.083       .  S
C354        O358   1.371       .  S
O356        H360   0.992       .  S
O358        H359   0.992       .  S
C361        C362   1.405       .  A
C361        C366   1.406   1_545  A
C362        C363   1.407       .  A
C362        H367   1.083       .  S
C363        C364   1.410       .  A
C363        O368   1.371       .  S
C364        C365   1.402   1_545  A
C365        C366   1.393       .  A
C365        H369   1.084       .  S
C366        O370   1.372       .  S
O368        H372   0.991       .  S
O370        H371   0.992       .  S
C373        C374   1.404       .  A
C373        C378   1.408       .  A
C374        C375   1.402       .  A
C374        H379   1.083       .  S
C375        C376   1.409       .  A
C375        O380   1.371       .  S
C376        C377   1.401       .  A
C377        C378   1.389       .  A
C377        H381   1.084       .  S
C378        O382   1.373       .  S
O380        H384   0.992       .  S
O382        H383   0.992       .  S
C385        C386   1.402       .  A
C385        C390   1.410       .  A
C386        C387   1.399       .  A
C386        H391   1.084       .  S
C387        C388   1.412       .  A
C387        O392   1.372       .  S
C388        C389   1.404       .  A
C389        C390   1.401       .  A
C389        H393   1.083       .  S
C390        O394   1.372       .  S
O392        H396   0.992       .  S
O394        H395   0.992       .  S
C397        C398   1.403       .  A
C397        C402   1.412       .  A
C398        C399   1.398       .  A
C398        H403   1.084       .  S
C399        C400   1.410       .  A
C399        O404   1.372       .  S
C400        C401   1.402       .  A
C401        C402   1.402       .  A
C401        H405   1.084       .  S
C402        O406   1.371       .  S
O404        H408   0.992       .  S
O406        H407   0.992       .  S
C409        C410   1.403       .  A
C409        C414   1.411       .  A
C410        C411   1.399       .  A
C410        H415   1.084   1_655  S
C411        C412   1.412       .  A
C411        O416   1.372   1_655  S
C412        C413   1.405       .  A
C413        C414   1.404       .  A
C413        H417   1.083       .  S
C414        O418   1.371       .  S
O416        H420   0.992       .  S
O418        H419   0.992       .  S
C421        C422   1.405       .  A
C421        C426   1.409       .  A
C422        C423   1.402       .  A
C422        H427   1.084       .  S
C423        C424   1.410       .  A
C423        O428   1.372       .  S
C424        C425   1.405       .  A
C425        C426   1.401       .  A
C425        H429   1.084       .  S
C426        O430   1.372       .  S
O428        H432   0.992       .  S
O430        H431   0.992       .  S
C433        C434   1.405       .  A
C433        C438   1.409       .  A
C434        C435   1.401       .  A
C434        H439   1.084       .  S
C435        C436   1.410       .  A
C435        O440   1.371       .  S
C436        C437   1.405       .  A
C437        C438   1.399       .  A
C437        H441   1.083   1_545  S
C438        O442   1.372   1_545  S
O440        H444   0.992       .  S
O442        H443   0.992   1_565  S
C445        C446   1.403       .  A
C445        C450   1.407       .  A
C446        C447   1.400       .  A
C446        H451   1.084       .  S
C447        C448   1.411       .  A
C447        O452   1.372       .  S
C448        C449   1.405       .  A
C449        C450   1.400       .  A
C449        H453   1.083   1_545  S
C450        O454   1.371   1_545  S
O452        H456   0.992   1_545  S
O454        H455   0.992   1_565  S
C457        C458   1.403       .  A
C457        C462   1.410       .  A
C458        C459   1.407       .  A
C458        H463   1.083       .  S
C459        C460   1.411       .  A
C459        O464   1.371       .  S
C460        C461   1.400       .  A
C461        C462   1.393       .  A
C461        H465   1.084       .  S
C462        O466   1.373       .  S
O464        H468   0.992       .  S
O466        H467   0.992       .  S
C469        C470   1.403   1_565  A
C469        C474   1.410       .  A
C470        C471   1.398       .  A
C470        H475   1.084       .  S
C471        C472   1.412   1_545  A
C471        O476   1.372       .  S
C472        C473   1.406       .  A
C473        C474   1.404       .  A
C473        H477   1.083       .  S
C474        O478   1.371       .  S
O476        H480   0.992       .  S
O478        H479   0.992       .  S
C481        C482   1.402       .  A
C481        C486   1.409       .  A
C482        C483   1.391       .  A
C482        H487   1.084       .  S
C483        C484   1.409       .  A
C483        O488   1.372       .  S
C484        C485   1.404       .  A
C485        C486   1.401       .  A
C485        H489   1.083       .  S
C486        O490   1.371       .  S
O488        H492   0.992       .  S
O490        H491   0.992       .  S
C493        C494   1.403       .  A
C493        C498   1.408   1_565  A
C494        C495   1.408       .  A
C494        H499   1.083       .  S
C495        C496   1.413       .  A
C495        O500   1.371       .  S
C496        C497   1.401   1_565  A
C497        C498   1.393       .  A
C497        H501   1.084       .  S
C498        O502   1.373       .  S
O500        H504   0.992       .  S
O502        H503   0.992       .  S
C505        C506   1.405       .  A
C505        C510   1.408   1_565  A
C506        C507   1.407       .  A
C506        H511   1.083       .  S
C507        C508   1.411   1_565  A
C507        O512   1.371       .  S
C508        C509   1.401       .  A
C509        C510   1.393       .  A
C509        H513   1.084       .  S
C510        O514   1.372       .  S
O512        H516   0.992       .  S
O514        H515   0.992       .  S
C517        C518   1.404       .  A
C517        C522   1.407       .  A
C518        C519   1.401       .  A
C518        H523   1.084       .  S
C519        C520   1.410       .  A
C519        O524   1.372       .  S
C520        C521   1.406       .  A
C521        C522   1.398       .  A
C521        H525   1.083       .  S
C522        O526   1.371       .  S
O524        H528   0.992       .  S
O526        H527   0.992       .  S
C529        C530   1.403       .  A
C529        C534   1.410       .  A
C530        C531   1.394       .  A
C530        H535   1.084       .  S
C531        C532   1.410       .  A
C531        O536   1.372       .  S
C532        C533   1.407       .  A
C533        C534   1.407       .  A
C533        H537   1.083       .  S
C534        O538   1.371       .  S
O536        H540   0.992       .  S
O538        H539   0.992       .  S
C541        C542   1.405       .  A
C541        C546   1.410   1_655  A
C542        C543   1.398       .  A
C542        H547   1.084       .  S
C543        C544   1.410       .  A
C543        O548   1.372       .  S
C544        C545   1.406   1_655  A
C545        C546   1.403       .  A
C545        H549   1.083       .  S
C546        O550   1.371       .  S
O548        H552   0.992       .  S
O550        H551   0.992       .  S
C553        C554   1.406       .  A
C553        C558   1.411       .  A
C554        C555   1.404       .  A
C554        H559   1.083       .  S
C555        C556   1.410       .  A
C555        O560   1.371       .  S
C556        C557   1.402       .  A
C557        C558   1.393       .  A
C557        H561   1.084       .  S
C558        O562   1.372       .  S
O560        H564   0.992       .  S
O562        H563   0.992       .  S
C565        C566   1.402       .  A
C565        C570   1.410       .  A
C566        C567   1.400       .  A
C566        H571   1.084       .  S
C567        C568   1.411       .  A
C567        O572   1.372       .  S
C568        C569   1.404       .  A
C569        C570   1.401       .  A
C569        H573   1.084       .  S
C570        O574   1.371       .  S
O572        H576   0.992   1_655  S
O574        H575   0.992   1_655  S
C577        C578   1.402       .  A
C577        C582   1.409   1_655  A
C578        C579   1.393       .  A
C578        H583   1.084       .  S
C579        C580   1.407       .  A
C579        O584   1.372       .  S
C580        C581   1.406   1_655  A
C581        C582   1.406       .  A
C581        H585   1.083       .  S
C582        O586   1.371       .  S
O584        H588   0.992       .  S
O586        H587   0.991       .  S
C589        C590   1.401       .  A
C589        C594   1.409       .  A
C590        C591   1.388       .  A
C590        H595   1.084       .  S
C591        C592   1.407       .  A
C591        O596   1.372       .  S
C592        C593   1.404       .  A
C593        C594   1.402       .  A
C593        H597   1.083       .  S
C594        O598   1.371       .  S
O596        H600   0.992       .  S
O598        H599   0.992       .  S
C601        C602   1.405       .  A
C601        C606   1.409       .  A
C602        C603   1.404       .  A
C602        H607   1.083       .  S
C603        C604   1.411       .  A
C603        O608   1.371       .  S
C604        C605   1.405       .  A
C605        C606   1.396       .  A
C605        H609   1.084       .  S
C606        O610   1.372       .  S
O608        H612   0.992       .  S
O610        H611   0.992       .  S
C613        C614   1.405       .  A
C613        C618   1.410       .  A
C614        C615   1.403       .  A
C614        H619   1.083       .  S
C615        C616   1.411       .  A
C615        O620   1.371       .  S
C616        C617   1.404       .  A
C617        C618   1.397       .  A
C617        H621   1.084       .  S
C618        O622   1.372       .  S
O620        H624   0.992       .  S
O622        H623   0.992       .  S
C625        C626   1.403       .  A
C625        C630   1.410       .  A
C626        C627   1.399       .  A
C626        H631   1.084   1_655  S
C627        C628   1.412       .  A
C627        O632   1.371   1_655  S
C628        C629   1.406       .  A
C629        C630   1.402       .  A
C629        H633   1.083       .  S
C630        O634   1.371       .  S
O632        H636   0.992   1_455  S
O634        H635   0.992       .  S
C637        C638   1.407   1_655  A
C637        C642   1.410       .  A
C638        C639   1.404       .  A
C638        H643   1.083       .  S
C639        C640   1.410   1_455  A
C639        O644   1.371       .  S
C640        C641   1.405       .  A
C641        C642   1.398       .  A
C641        H645   1.084       .  S
C642        O646   1.372       .  S
O644        H648   0.992       .  S
O646        H647   0.992       .  S
C649        C650   1.405       .  A
C649        C654   1.410       .  A
C650        C651   1.398       .  A
C650        H655   1.084       .  S
C651        C652   1.408       .  A
C651        O656   1.372   1_655  S
C652        C653   1.406       .  A
C653        C654   1.404       .  A
C653        H657   1.084       .  S
C654        O658   1.371       .  S
O656        H660   0.992       .  S
O658        H659   0.992       .  S
C661        C662   1.410   1_655  A
C661        C666   1.410       .  A
C662        C663   1.408       .  A
C662        H667   1.083       .  S
C663        C664   1.405   1_455  A
C663        O668   1.371       .  S
C664        C665   1.400       .  A
C665        C666   1.391       .  A
C665        H669   1.085       .  S
C666        O670   1.372       .  S
O668        H672   0.992       .  S
O670        H671   0.992       .  S
C673        C674   1.404       .  A
C673        C678   1.410       .  A
C674        C675   1.399       .  A
C674        H679   1.084       .  S
C675        C676   1.409       .  A
C675        O680   1.372       .  S
C676        C677   1.404       .  A
C677        C678   1.402       .  A
C677        H681   1.084       .  S
C678        O682   1.372       .  S
O680        H684   0.992       .  S
O682        H683   0.992       .  S
C685        C686   1.409       .  A
C685        C690   1.411       .  A
C686        C687   1.404       .  A
C686        H691   1.083       .  S
C687        C688   1.404       .  A
C687        O692   1.371       .  S
C688        C689   1.401       .  A
C689        C690   1.398       .  A
C689        H693   1.084       .  S
C690        O694   1.372       .  S
O692        H696   0.992       .  S
O694        H695   0.991       .  S
C697        C698   1.405       .  A
C697        C702   1.411   1_545  A
C698        C699   1.407       .  A
C698        H703   1.083       .  S
C699        C700   1.412       .  A
C699        O704   1.371       .  S
C700        C701   1.401   1_545  A
C701        C702   1.392       .  A
C701        H705   1.084       .  S
C702        O706   1.372       .  S
O704        H708   0.992       .  S
O706        H707   0.992       .  S
C709        C710   1.404       .  A
C709        C714   1.411   1_565  A
C710        C711   1.401       .  A
C710        H715   1.084       .  S
C711        C712   1.411       .  A
C711        O716   1.372       .  S
C712        C713   1.404   1_565  A
C713        C714   1.401       .  A
C713        H717   1.084       .  S
C714        O718   1.372       .  S
O716        H720   0.992       .  S
O718        H719   0.992       .  S
C721        C722   1.403       .  A
C721        C726   1.410       .  A
C722        C723   1.399       .  A
C722        H727   1.084       .  S
C723        C724   1.412       .  A
C723        O728   1.371   1_545  S
C724        C725   1.405       .  A
C725        C726   1.402       .  A
C725        H729   1.083       .  S
C726        O730   1.371       .  S
O728        H732   0.992   1_565  S
O730        H731   0.992       .  S
C733        C734   1.405       .  A
C733        C738   1.412   1_565  A
C734        C735   1.403       .  A
C734        H739   1.083       .  S
C735        C736   1.412       .  A
C735        O740   1.371       .  S
C736        C737   1.404   1_565  A
C737        C738   1.399       .  A
C737        H741   1.084       .  S
C738        O742   1.371       .  S
O740        H744   0.992       .  S
O742        H743   0.992       .  S
