geometry optimzed in LAMMPS
_audit_creation_date              2020-11-30 
_audit_creation_method            'lammps2cif' 
_symmetry_space_group_name_H-M    'P1' 
_symmetry_Int_Tables_number       1 
_symmetry_cell_setting            triclinic 
loop_ 
_symmetry_equiv_pos_as_xyz 
  x,y,z 
_cell_length_a                    39.20083952 
_cell_length_b                    39.15808273558908 
_cell_length_c                    39.15986916495409 
_cell_angle_alpha                 90.01414044829978 
_cell_angle_beta                  89.92024606033245 
_cell_angle_gamma                 89.97987488126394 
loop_ 
_atom_site_label 
_atom_site_type_symbol 
_atom_site_fract_x 
_atom_site_fract_y 
_atom_site_fract_z 
_atom_site_charge 
In1        In  0.24954056  0.62619389  0.50002874     1.36900
C2          C  0.30457852  0.65624615  0.47417927     0.79700
O3          O  0.27526707  0.62789219  0.55122780    -0.58700
O4          O  0.26196384  0.57938009  0.53092969    -0.49600
C5          C  0.19439340  0.65549085  0.52628942     0.72400
O6          O  0.21873985  0.67258209  0.51408441    -0.44500
C7          C  0.22369303  0.59694145  0.44465868     0.77100
O8          O  0.28041013  0.67292920  0.48728561    -0.56300
O9          O  0.23761447  0.57997237  0.46814034    -0.46400
O10         O  0.30067926  0.62434613  0.47410596    -0.52800
C11         C  0.27517110  0.59598743  0.55506643     0.87300
O12         O  0.19811141  0.62358808  0.52509113    -0.54700
O13         O  0.22297198  0.62873833  0.44933595    -0.57900
In14       In  0.75141282  0.87428722  0.50263004     1.36900
C15         C  0.77823028  0.90437339  0.44808944     0.79700
O16         O  0.80261837  0.87606204  0.52808964    -0.58700
O17         O  0.78190338  0.82745030  0.51581910    -0.49600
C18         C  0.72469546  0.90479771  0.55698307     0.72400
O19         O  0.73470272  0.92118047  0.53119801    -0.44500
C20         C  0.69623006  0.84442590  0.47716397     0.77100
O21         O  0.76883163  0.92088100  0.47402834    -0.56300
O22         O  0.72068518  0.82762619  0.48948078    -0.46400
O23         O  0.77406879  0.87255712  0.44990453    -0.52800
C24         C  0.80618425  0.84413763  0.52859947     0.87300
O25         O  0.72824018  0.87290254  0.55511676    -0.54700
O26         O  0.69987635  0.87635077  0.47776518    -0.57900
In27       In  0.00032005  0.74906154  0.62845130     1.36900
C28         C  0.02602227  0.80449447  0.65787513     0.79700
O29         O  0.05256573  0.72560597  0.62991266    -0.58700
O30         O  0.02962621  0.73386990  0.58147150    -0.49600
C31         C  0.97469827  0.69383736  0.65839741     0.72400
O32         O  0.98706944  0.71831557  0.67516597    -0.44500
C33         C  0.94514004  0.77499395  0.59915965     0.77100
O34         O  0.01469525  0.77965769  0.67486991    -0.56300
O35         O  0.97025359  0.76433975  0.58214005    -0.46400
O36         O  0.02423766  0.80114447  0.62596545    -0.52800
C37         C  0.05503160  0.72320272  0.59795754     0.87300
O38         O  0.97550452  0.69740245  0.62646852    -0.54700
O39         O  0.94810288  0.77248231  0.63106359    -0.57900
In40       In  0.50113134  0.75053812  0.87666539     1.36900
C41         C  0.52805166  0.80608245  0.84853132     0.79700
O42         O  0.45004589  0.77654107  0.87522084    -0.58700
O43         O  0.46964186  0.76151913  0.92348372    -0.49600
C44         C  0.47542772  0.69613406  0.84529731     0.72400
O45         O  0.48643616  0.72169102  0.82918220    -0.44500
C46         C  0.55612268  0.72446239  0.90602151     0.77100
O47         O  0.51603158  0.78198408  0.83097653    -0.56300
O48         O  0.53187900  0.73698852  0.92303539    -0.46400
O49         O  0.52628929  0.80196990  0.88035950    -0.52800
C50         C  0.44573832  0.77529926  0.90704977     0.87300
O51         O  0.47753318  0.69825191  0.87729243    -0.54700
O52         O  0.55234382  0.72511640  0.87411706    -0.57900
In53       In  0.62672407  0.00090547  0.75210616     1.36900
C54         C  0.59767307  0.94589762  0.77912193     0.79700
O55         O  0.62369640  0.97599972  0.70056343    -0.58700
O56         O  0.67270127  0.98866322  0.72000479    -0.49600
C57         C  0.59634554  0.05584090  0.72647598     0.72400
O58         O  0.57992357  0.02977753  0.73567258    -0.44500
C59         C  0.65768848  0.02555487  0.80702430     0.77100
O60         O  0.58080813  0.97202363  0.77095139    -0.56300
O61         O  0.67398335  0.01338183  0.78209806    -0.46400
O62         O  0.62923178  0.94774711  0.77348180    -0.52800
C63         C  0.65549468  0.97592375  0.69604248     0.87300
O64         O  0.62815520  0.05395377  0.73032870    -0.54700
O65         O  0.62573971  0.02519644  0.80397431    -0.57900
In66       In  0.74919604  0.62496615  0.00298314     1.36900
C67         C  0.77395497  0.59545291  0.94706185     0.79700
O68         O  0.69665409  0.62323077  0.98055874    -0.58700
O69         O  0.72050533  0.67167310  0.98624444    -0.49600
C70         C  0.72419185  0.59492747  0.05850453     0.72400
O71         O  0.73865662  0.57840869  0.03497543    -0.44500
C72         C  0.80357864  0.65506129  0.02970680     0.77100
O73         O  0.75967007  0.57869578  0.97049586    -0.56300
O74         O  0.77822639  0.67171679  0.01912933    -0.46400
O75         O  0.77571166  0.62712871  0.95211433    -0.52800
C76         C  0.69475227  0.65506894  0.97662352     0.87300
O77         O  0.72241193  0.62667711  0.05375706    -0.54700
O78         O  0.80123464  0.62314003  0.02673049    -0.57900
In79       In  0.87470143  0.49896655  0.75340539     1.36900
C80         C  0.84548238  0.47195792  0.69849715     0.79700
O81         O  0.87230441  0.55037548  0.72794384    -0.58700
O82         O  0.92106101  0.53017987  0.74021756    -0.49600
C83         C  0.84391959  0.52519377  0.80789079     0.72400
O84         O  0.82757125  0.51311168  0.78301710    -0.44500
C85         C  0.90505832  0.44440833  0.77993823     0.77100
O86         O  0.82843887  0.48393585  0.72300088    -0.56300
O87         O  0.92159930  0.46889393  0.76727426    -0.46400
O88         O  0.87735221  0.47373533  0.70190821    -0.52800
C89         C  0.90415282  0.55438441  0.72753728     0.87300
O90         O  0.87587914  0.52383110  0.80509477    -0.54700
O91         O  0.87312980  0.44769166  0.77912717    -0.57900
In92       In  0.62545117  0.49986514  0.25414318     1.36900
C93         C  0.65596614  0.52485390  0.19881248     0.79700
O94         O  0.62723213  0.44696421  0.23205449    -0.58700
O95         O  0.57887609  0.47094574  0.23716276    -0.49600
C96         C  0.65474273  0.47450113  0.30981011     0.72400
O97         O  0.67176346  0.48652309  0.28531287    -0.44500
C98         C  0.59536052  0.55499989  0.27974985     0.77100
O99         O  0.67245026  0.51218127  0.22331663    -0.56300
O100        O  0.57878382  0.52910576  0.27039842    -0.46400
O101        O  0.62406494  0.52473423  0.20245051    -0.52800
C102        C  0.59546163  0.44496848  0.22800195     0.87300
O103        O  0.62287880  0.47564232  0.30610815    -0.54700
O104        O  0.62720748  0.55278165  0.27622000    -0.57900
In105      In  0.50233394  0.24994539  0.12726797     1.36900
C106        C  0.55743895  0.22425163  0.09711862     0.79700
O107        O  0.52531568  0.30246957  0.12575383    -0.58700
O108        O  0.51632104  0.27987332  0.17424740    -0.49600
C109        C  0.44745596  0.27578715  0.09687860     0.72400
O110        O  0.47318089  0.26576521  0.08040566    -0.44500
C111        C  0.47697697  0.19472932  0.15735214     0.77100
O112        O  0.53190567  0.23437181  0.08050346    -0.56300
O113        O  0.48840080  0.21968491  0.17406220    -0.46400
O114        O  0.55500236  0.22730290  0.12901352    -0.52800
C115        C  0.52710563  0.30524141  0.15771632     0.87300
O116        O  0.44956174  0.27250105  0.12878354    -0.54700
O117        O  0.47851711  0.19783531  0.12540409    -0.57900
In118      In  0.37620302  0.00024371  0.25152518     1.36900
C119        C  0.34687220  0.97475531  0.19596353     0.79700
O120        O  0.37442335  0.05265657  0.22829796    -0.58700
O121        O  0.42294283  0.02998203  0.23664221    -0.49600
C122        C  0.34582491  0.02527742  0.30692680     0.72400
O123        O  0.32927054  0.01331536  0.28212287    -0.44500
C124        C  0.40651079  0.94548655  0.27737919     0.77100
O125        O  0.32989139  0.98735377  0.22020322    -0.56300
O126        O  0.42301694  0.97102546  0.26697968    -0.46400
O127        O  0.37871286  0.97516257  0.19996785    -0.52800
C128        C  0.40633252  0.05534487  0.22602190     0.87300
O129        O  0.37774203  0.02438992  0.30358082    -0.54700
O130        O  0.37460130  0.94778497  0.27461163    -0.57900
In131      In  0.50101933  0.75108955  0.37760233     1.36900
C132        C  0.52620624  0.69565521  0.34769366     0.79700
O133        O  0.55321583  0.77462713  0.37604679    -0.58700
O134        O  0.53130073  0.76417202  0.42458366    -0.49600
C135        C  0.47630204  0.80652355  0.34753764     0.72400
O136        O  0.48679904  0.78112086  0.33084220    -0.44500
C137        C  0.44509723  0.72630738  0.40690668     0.77100
O138        O  0.51646628  0.72129744  0.33094065    -0.56300
O139        O  0.46982878  0.73763775  0.42398368    -0.46400
O140        O  0.52316435  0.69824364  0.37958416    -0.52800
C141        C  0.55631766  0.77568930  0.40800532     0.87300
O142        O  0.47839727  0.80373461  0.37948279    -0.54700
O143        O  0.44876650  0.72774052  0.37500710    -0.57900
In144      In  0.75195931  0.12405821  0.00228681     1.36900
C145        C  0.69656755  0.15366019  0.02769324     0.79700
O146        O  0.72542639  0.12596845  0.95158002    -0.58700
O147        O  0.74140564  0.07759849  0.97030905    -0.49600
C148        C  0.80716390  0.15423661  0.97712543     0.72400
O149        O  0.78305360  0.17084553  0.99042536    -0.44500
C150        C  0.77680247  0.09412124  0.05767163     0.77100
O151        O  0.72049997  0.17049567  0.01437756    -0.56300
O152        O  0.76321649  0.07744356  0.03379730    -0.46400
O153        O  0.70080770  0.12179691  0.02806193    -0.52800
C154        C  0.72707298  0.09422168  0.94684283     0.87300
O155        O  0.80318016  0.12235614  0.97664272    -0.54700
O156        O  0.77775201  0.12595047  0.05334604    -0.57900
In157      In  0.00192247  0.24971994  0.87826656     1.36900
C158        C  0.05717471  0.27499788  0.90799980     0.79700
O159        O  0.02663686  0.19796885  0.88025985    -0.58700
O160        O  0.01577100  0.21924464  0.83155865    -0.49600
C161        C  0.94682287  0.22394103  0.90808775     0.72400
O162        O  0.97115013  0.23647213  0.92489614    -0.44500
C163        C  0.97602178  0.30517270  0.84900743     0.77100
O164        O  0.03276444  0.26258821  0.92483982    -0.56300
O165        O  0.98784163  0.28061113  0.83191619    -0.46400
O166        O  0.05343838  0.27460973  0.87608446    -0.52800
C167        C  0.02778163  0.19457843  0.84831674     0.87300
O168        O  0.95052646  0.22454198  0.87616347    -0.54700
O169        O  0.97743455  0.30153367  0.88090211    -0.57900
In170      In  0.25054955  0.87369685  0.00264478     1.36900
C171        C  0.22456738  0.90411277  0.94791833     0.79700
O172        O  0.30124611  0.87492016  0.97593901    -0.58700
O173        O  0.28186843  0.82672688  0.99157520    -0.49600
C174        C  0.27719879  0.90390295  0.05715342     0.72400
O175        O  0.26660800  0.92046864  0.03174672    -0.44500
C176        C  0.19468386  0.84473728  0.02780090     0.77100
O177        O  0.23541322  0.92062523  0.97326609    -0.56300
O178        O  0.21833784  0.82759513  0.01435354    -0.46400
O179        O  0.22691109  0.87214463  0.95041743    -0.52800
C180        C  0.30556313  0.84310667  0.97729082     0.87300
O181        O  0.27426483  0.87197917  0.05483741    -0.54700
O182        O  0.19952154  0.87648563  0.02854153    -0.57900
In183      In  0.12614358  0.99924816  0.75259075     1.36900
C184        C  0.09656027  0.05495823  0.77760311     0.79700
O185        O  0.12407411  0.97718618  0.80550920    -0.58700
O186        O  0.17269074  0.98360038  0.78235566    -0.49600
C187        C  0.09605054  0.94384835  0.72754733     0.72400
O188        O  0.07938877  0.96855185  0.73964707    -0.44500
C189        C  0.15588160  0.02466448  0.69715846     0.77100
O190        O  0.07964985  0.03024809  0.76591758    -0.56300
O191        O  0.17271207  0.01424750  0.72247025    -0.46400
O192        O  0.12845018  0.05139901  0.77636643    -0.52800
C193        C  0.15591390  0.97401991  0.80807042     0.87300
O194        O  0.12796064  0.94723950  0.72838364    -0.54700
O195        O  0.12400470  0.02216846  0.70007368    -0.57900
In196      In  0.87595653  0.00146641  0.25331389     1.34500
C197        C  0.90649325  0.94661227  0.22746520     0.79700
O198        O  0.87858116  0.97947650  0.30619132    -0.58700
O199        O  0.82978433  0.98514066  0.28331244    -0.49600
C200        C  0.90511488  0.05748583  0.27803439     0.72400
O201        O  0.92216876  0.03215195  0.26794658    -0.44500
C202        C  0.84549656  0.02620422  0.19816467     0.77100
O203        O  0.92294459  0.97212223  0.23801900    -0.56300
O204        O  0.82898720  0.01610079  0.22385161    -0.46400
O205        O  0.87459226  0.94893053  0.23026078    -0.52800
C206        C  0.84680917  0.97573712  0.30887964     0.87300
O207        O  0.87326135  0.05432531  0.27554772    -0.54700
O208        O  0.87741145  0.02378564  0.20058965    -0.57900
In209      In  0.99889809  0.75118464  0.12625428     1.36900
C210        C  0.97479225  0.80707321  0.15621695     0.79700
O211        O  0.05138696  0.77386965  0.12756054    -0.58700
O212        O  0.02782330  0.76703023  0.07918420    -0.49600
C213        C  0.02378729  0.69536165  0.15561519     0.72400
O214        O  0.01141238  0.71970231  0.17262819    -0.44500
C215        C  0.94326723  0.72535910  0.09773379     0.77100
O216        O  0.98830516  0.78309591  0.17283411    -0.56300
O217        O  0.96859224  0.73492110  0.08036806    -0.46400
O218        O  0.97352334  0.80259295  0.12441150    -0.52800
C219        C  0.05350619  0.77706843  0.09565977     0.87300
O220        O  0.02348871  0.69942847  0.12373881    -0.54700
O221        O  0.94624585  0.72899951  0.12952578    -0.57900
In222      In  0.12535143  0.50110079  0.24964351     1.36900
C223        C  0.09445207  0.55565788  0.22378174     0.79700
O224        O  0.12290333  0.52548395  0.30149490    -0.58700
O225        O  0.17177148  0.51608257  0.27987855    -0.49600
C226        C  0.09661240  0.44595061  0.27664669     0.72400
O227        O  0.07937535  0.47058338  0.26527354    -0.44500
C228        C  0.15495733  0.47511667  0.19428220     0.77100
O229        O  0.07817548  0.53020019  0.23474119    -0.56300
O230        O  0.17183160  0.48818755  0.21830763    -0.46400
O231        O  0.12639887  0.55331371  0.22586970    -0.52800
C232        C  0.15477500  0.52751075  0.30469809     0.87300
O233        O  0.12846305  0.44932254  0.27419774    -0.54700
O234        O  0.12311605  0.47533662  0.19840856    -0.57900
In235      In  0.37486779  0.50183338  0.75015845     1.36900
C236        C  0.34579699  0.47606213  0.80585583     0.79700
O237        O  0.37260950  0.45018118  0.72530254    -0.58700
O238        O  0.42132533  0.47066609  0.73745291    -0.49600
C239        C  0.34503346  0.52664760  0.69459840     0.72400
O240        O  0.32822429  0.51576972  0.71978536    -0.44500
C241        C  0.40481491  0.55757307  0.77465745     0.77100
O242        O  0.32864474  0.48824678  0.78156727    -0.56300
O243        O  0.42151678  0.53273215  0.76290901    -0.46400
O244        O  0.37762808  0.47719415  0.80188436    -0.52800
C245        C  0.40448844  0.44626976  0.72502812     0.87300
O246        O  0.37694297  0.52484021  0.69767493    -0.54700
O247        O  0.37290751  0.55410816  0.77385865    -0.57900
In248      In  0.25253665  0.37434179  0.00075822     1.36900
C249        C  0.19751422  0.34341691  0.97633679     0.79700
O250        O  0.23041887  0.37258541  0.05374212    -0.58700
O251        O  0.23399770  0.42078583  0.02911161    -0.49600
C252        C  0.30871153  0.34577280  0.02587591     0.72400
O253        O  0.28484230  0.32845934  0.01311766    -0.44500
C254        C  0.27805676  0.40430268  0.94546882     0.77100
O255        O  0.22204676  0.32706619  0.98913299    -0.56300
O256        O  0.26918870  0.42089722  0.97156084    -0.46400
O257        O  0.20103583  0.37535025  0.97595556    -0.52800
C258        C  0.22523743  0.40427548  0.05528433     0.87300
O259        O  0.30404046  0.37757843  0.02577702    -0.54700
O260        O  0.27394389  0.37248791  0.94749325    -0.57900
In261      In  0.24981596  0.12477286  0.50186097     1.36900
C262        C  0.22414251  0.09452285  0.55694822     0.79700
O263        O  0.30145555  0.12302985  0.52659197    -0.58700
O264        O  0.27980529  0.17165677  0.51619963    -0.49600
C265        C  0.27591405  0.09495404  0.44665991     0.72400
O266        O  0.26369246  0.07814483  0.47119764    -0.44500
C267        C  0.19479193  0.15456067  0.47574725     0.77100
O268        O  0.23669549  0.07791761  0.53242995    -0.56300
O269        O  0.21933555  0.17137897  0.48783871    -0.46400
O270        O  0.22455094  0.12646160  0.55340333    -0.52800
C271        C  0.30454261  0.15497670  0.52810625     0.87300
O272        O  0.27488910  0.12688493  0.45021587    -0.54700
O273        O  0.19820480  0.12262264  0.47699045    -0.57900
In274      In  0.00058638  0.25212940  0.37759044     1.36900
C275        C  0.97461636  0.19743547  0.34701076     0.79700
O276        O  0.05320991  0.22955610  0.37491824    -0.58700
O277        O  0.03028500  0.23537340  0.42377024    -0.49600
C278        C  0.02629807  0.30765183  0.34831411     0.72400
O279        O  0.01585204  0.28245796  0.33130752    -0.44500
C280        C  0.94560286  0.27710364  0.40821745     0.77100
O281        O  0.98485601  0.22310120  0.33056748    -0.56300
O282        O  0.97132906  0.26712903  0.42464592    -0.46400
O283        O  0.97764649  0.19958666  0.37892612    -0.52800
C284        C  0.05578569  0.22572929  0.40671792     0.87300
O285        O  0.02346115  0.30471179  0.38020191    -0.54700
O286        O  0.94794499  0.27458443  0.37626425    -0.57900
In287      In  0.74974555  0.37302175  0.50368519     1.36900
C288        C  0.77594066  0.40209481  0.55901718     0.79700
O289        O  0.69829375  0.37543450  0.52855074    -0.58700
O290        O  0.71828662  0.32659517  0.51556863    -0.49600
C291        C  0.72367703  0.40312018  0.44882612     0.72400
O292        O  0.73332586  0.41972551  0.47461010    -0.44500
C293        C  0.80510355  0.34325966  0.47863190     0.77100
O294        O  0.76735084  0.41907124  0.53310102    -0.56300
O295        O  0.78075177  0.32637711  0.49109792    -0.46400
O296        O  0.77116111  0.37039155  0.55678932    -0.52800
C297        C  0.69412212  0.34356308  0.52833215     0.87300
O298        O  0.72725120  0.37125060  0.45097672    -0.54700
O299        O  0.80126962  0.37515744  0.47897017    -0.57900
In300      In  0.49912734  0.24998957  0.62778546     1.36900
C301        C  0.47414445  0.30564985  0.65747096     0.79700
O302        O  0.55125573  0.27349796  0.62928885    -0.58700
O303        O  0.52850508  0.26479207  0.58078975    -0.49600
C304        C  0.52525670  0.19490961  0.65740446     0.72400
O305        O  0.51238010  0.21906823  0.67430393    -0.44500
C306        C  0.44390091  0.22387169  0.59851136     0.77100
O307        O  0.48637376  0.28118648  0.67435933    -0.56300
O308        O  0.46876331  0.23503479  0.58147219    -0.46400
O309        O  0.47469275  0.30180735  0.62557395    -0.52800
C310        C  0.55381169  0.27564067  0.59731914     0.87300
O311        O  0.52475464  0.19874534  0.62550050    -0.54700
O312        O  0.44716521  0.22590925  0.63041552    -0.57900
C313        C  0.66399237  0.32781037  0.54178525    -0.16300
C314        C  0.63852898  0.31525868  0.55355345     0.07700
C315        C  0.60874115  0.30116442  0.56798824     0.09600
C316        C  0.58348810  0.28942673  0.58099091    -0.17200
C317        C  0.91570137  0.29031265  0.42464526    -0.16300
C318        C  0.89030981  0.30152143  0.43786873     0.07700
C319        C  0.86046975  0.31510739  0.45270854     0.09600
C320        C  0.83505892  0.32743480  0.46484780    -0.17200
C321        C  0.41397653  0.20988522  0.58274685    -0.16300
C322        C  0.38874499  0.19804672  0.56976375     0.07700
C323        C  0.35920112  0.18382126  0.55487350     0.09600
C324        C  0.33411495  0.17108443  0.54246578    -0.17200
C325        C  0.08559130  0.21126783  0.42230956    -0.16300
C326        C  0.11068758  0.19877357  0.43495961     0.07700
C327        C  0.14006950  0.18374046  0.44940382     0.09600
C328        C  0.16509340  0.17058787  0.46152481    -0.17200
C329        C  0.46037086  0.33569155  0.67331765    -0.16300
C330        C  0.44824759  0.36104775  0.68588992     0.07700
C331        C  0.43346795  0.39079119  0.69992971     0.09600
C332        C  0.42043607  0.41616566  0.71151537    -0.17200
C333        C  0.29191971  0.42044081  0.91560347    -0.16300
C334        C  0.30374515  0.43375475  0.89047475     0.07700
C335        C  0.31787271  0.44902477  0.86099930     0.09600
C336        C  0.33030283  0.46166509  0.83581325    -0.17200
C337        C  0.17076906  0.46085130  0.16439119    -0.16300
C338        C  0.18350350  0.44845714  0.13920947     0.07700
C339        C  0.19807843  0.43349320  0.10975788     0.09600
C340        C  0.21045915  0.42035998  0.08477583    -0.17200
C341        C  0.08109394  0.41624293  0.29146791    -0.16300
C342        C  0.06816093  0.39137742  0.30419888     0.07700
C343        C  0.05318733  0.36230595  0.31938714     0.09600
C344        C  0.04067798  0.33743382  0.33252303    -0.17200
C345        C  0.07786689  0.58523949  0.20992986    -0.16300
C346        C  0.06450203  0.61031941  0.19812422     0.07700
C347        C  0.04956207  0.63988726  0.18392514     0.09600
C348        C  0.03745660  0.66522207  0.17132936    -0.17200
C349        C  0.92078997  0.08772818  0.29154069    -0.16300
C350        C  0.93359628  0.11312162  0.30330846     0.07700
C351        C  0.94822240  0.14275575  0.31771645     0.09600
C352        C  0.96042343  0.16786517  0.33067616    -0.17200
C353        C  0.92280176  0.91709296  0.21306184    -0.16300
C354        C  0.93572912  0.89210298  0.20052680     0.07700
C355        C  0.95003687  0.86260386  0.18546653     0.09600
C356        C  0.96162367  0.83727671  0.17231304    -0.17200
C357        C  0.21038538  0.07829970  0.58680533    -0.16300
C358        C  0.19862745  0.06522821  0.61208466     0.07700
C359        C  0.18443144  0.05054756  0.64181074     0.09600
C360        C  0.17177033  0.03850430  0.66716364    -0.17200
C361        C  0.16433434  0.82933393  0.04126842    -0.16300
C362        C  0.13861655  0.81702409  0.05279337     0.07700
C363        C  0.10853313  0.80300206  0.06676305     0.09600
C364        C  0.08314067  0.79112722  0.07941285    -0.17200
C365        C  0.21058897  0.92048862  0.91827942    -0.16300
C366        C  0.19872403  0.93368609  0.89314132     0.07700
C367        C  0.18448372  0.94840331  0.86348106     0.09600
C368        C  0.17181368  0.96035809  0.83811524    -0.17200
C369        C  0.16767452  0.32700994  0.96300237    -0.16300
C370        C  0.14230937  0.31426464  0.95124416     0.07700
C371        C  0.11250540  0.30019411  0.93682215     0.09600
C372        C  0.08713582  0.28858268  0.92395755    -0.17200
C373        C  0.08072631  0.08491141  0.79162478    -0.16300
C374        C  0.06803772  0.11009435  0.80401203     0.07700
C375        C  0.05372015  0.13959473  0.81905554     0.09600
C376        C  0.04178327  0.16474619  0.83223153    -0.17200
C377        C  0.82923196  0.03959308  0.16826268    -0.16300
C378        C  0.81634266  0.05120389  0.14288864     0.07700
C379        C  0.80201472  0.06537647  0.11307103     0.09600
C380        C  0.79028576  0.07810979  0.08767093    -0.17200
C381        C  0.83702959  0.17037623  0.96342291    -0.16300
C382        C  0.86226341  0.18329912  0.95149370     0.07700
C383        C  0.89184321  0.19785295  0.93698245     0.09600
C384        C  0.91702551  0.20992078  0.92408525    -0.17200
C385        C  0.32960211  0.03911968  0.33679694    -0.16300
C386        C  0.31665498  0.05123742  0.36200555     0.07700
C387        C  0.30209284  0.06595323  0.39159024     0.09600
C388        C  0.29001639  0.07894526  0.41679560    -0.17200
C389        C  0.29157522  0.92019042  0.08662648    -0.16300
C390        C  0.30379247  0.93348113  0.11153166     0.07700
C391        C  0.31836815  0.94848122  0.14086216     0.09600
C392        C  0.33114430  0.96075838  0.16600604    -0.17200
C393        C  0.46273215  0.83643458  0.33139610    -0.16300
C394        C  0.45077431  0.86158157  0.31834751     0.07700
C395        C  0.43603869  0.89095411  0.30363347     0.09600
C396        C  0.42283634  0.91592084  0.29147054    -0.17200
C397        C  0.42254736  0.08516829  0.21230933    -0.16300
C398        C  0.43576686  0.11033578  0.20055453     0.07700
C399        C  0.45071787  0.13983759  0.18627916     0.09600
C400        C  0.46299184  0.16496562  0.17345762    -0.17200
C401        C  0.41797581  0.29016402  0.08053126    -0.16300
C402        C  0.39321238  0.30265002  0.06718849     0.07700
C403        C  0.36404959  0.31756485  0.05211309     0.09600
C404        C  0.33892049  0.33038802  0.03981029    -0.17200
C405        C  0.66663315  0.16959643  0.04152120    -0.16300
C406        C  0.64148563  0.18269218  0.05347553     0.07700
C407        C  0.61210247  0.19766550  0.06800096     0.09600
C408        C  0.58709566  0.21005646  0.08096672    -0.17200
C409        C  0.67044707  0.46022048  0.33966784    -0.16300
C410        C  0.68315393  0.44766901  0.36472441     0.07700
C411        C  0.69757763  0.43251887  0.39407533     0.09600
C412        C  0.70959712  0.41928538  0.41912030    -0.17200
C413        C  0.57919792  0.58493002  0.29339687    -0.16300
C414        C  0.56623093  0.61032599  0.30500806     0.07700
C415        C  0.55174448  0.64020303  0.31906641     0.09600
C416        C  0.53987770  0.66564199  0.33171256    -0.17200
C417        C  0.57941861  0.41521743  0.21392220    -0.16300
C418        C  0.56660716  0.39000287  0.20182040     0.07700
C419        C  0.55229850  0.36037615  0.18713970     0.09600
C420        C  0.54057903  0.33512792  0.17403777    -0.17200
C421        C  0.79021231  0.41767365  0.58893663    -0.16300
C422        C  0.80240389  0.43037442  0.61416919     0.07700
C423        C  0.81698542  0.44498383  0.64370746     0.09600
C424        C  0.82977876  0.45734189  0.66881113    -0.17200
C425        C  0.96182433  0.33511886  0.83336278    -0.16300
C426        C  0.94948711  0.36033888  0.82074267     0.07700
C427        C  0.93454456  0.38982918  0.80635369     0.09600
C428        C  0.92134478  0.41486066  0.79424325    -0.17200
C429        C  0.67222364  0.53864543  0.16893928    -0.16300
C430        C  0.68497086  0.55081386  0.14365752     0.07700
C431        C  0.69908540  0.56567751  0.11393266     0.09600
C432        C  0.71068892  0.57879773  0.08857673    -0.17200
C433        C  0.83308923  0.67122915  0.04403412    -0.16300
C434        C  0.85818208  0.68429405  0.05603057     0.07700
C435        C  0.88781237  0.69903171  0.07015658     0.09600
C436        C  0.91317883  0.71122760  0.08248673    -0.17200
C437        C  0.78744038  0.57966252  0.91684747    -0.16300
C438        C  0.79937315  0.56678436  0.89154585     0.07700
C439        C  0.81413502  0.55199033  0.86215047     0.09600
C440        C  0.82739855  0.53959487  0.83727545    -0.17200
C441        C  0.53958382  0.16516917  0.67327512    -0.16300
C442        C  0.55197378  0.14007404  0.68606366     0.07700
C443        C  0.56690729  0.11063577  0.70052498     0.09600
C444        C  0.58007336  0.08554571  0.71252503    -0.17200
C445        C  0.67421401  0.03902047  0.83675518    -0.16300
C446        C  0.68725598  0.05084214  0.86195823     0.07700
C447        C  0.70170430  0.06531191  0.89158262     0.09600
C448        C  0.71351212  0.07821179  0.91686797    -0.17200
C449        C  0.58593649  0.71044957  0.92180401    -0.16300
C450        C  0.61106713  0.69847737  0.93475750     0.07700
C451        C  0.64042800  0.68404295  0.94962899     0.09600
C452        C  0.66535413  0.67116986  0.96210523    -0.17200
C453        C  0.42093366  0.58755640  0.78823744    -0.16300
C454        C  0.43410303  0.61263971  0.80027749     0.07700
C455        C  0.44904764  0.64189289  0.81514976     0.09600
C456        C  0.46134355  0.66674548  0.82852172    -0.17200
C457        C  0.58214177  0.91614457  0.79384132    -0.16300
C458        C  0.56953362  0.89096208  0.80627437     0.07700
C459        C  0.55502573  0.86135478  0.82087323     0.09600
C460        C  0.54269551  0.83608220  0.83340333    -0.17200
C461        C  0.33534841  0.82684058  0.96343905    -0.16300
C462        C  0.36063109  0.81413547  0.95130342     0.07700
C463        C  0.39037847  0.80012046  0.93649919     0.09600
C464        C  0.41573381  0.78863484  0.92334262    -0.17200
C465        C  0.96048282  0.66409179  0.67442051    -0.16300
C466        C  0.94805127  0.63901182  0.68724125     0.07700
C467        C  0.93305586  0.60955163  0.70165652     0.09600
C468        C  0.91999211  0.58435868  0.71359700    -0.17200
C469        C  0.04007724  0.83441885  0.67366750    -0.16300
C470        C  0.05222633  0.85957555  0.68657891     0.07700
C471        C  0.06691234  0.88900197  0.70133754     0.09600
C472        C  0.07991923  0.91406902  0.71356900    -0.17200
C473        C  0.67096158  0.96203944  0.66586397    -0.16300
C474        C  0.68359840  0.94974782  0.64062531     0.07700
C475        C  0.69808651  0.93465567  0.61126524     0.09600
C476        C  0.71028738  0.92124839  0.58638330    -0.17200
C477        C  0.66635062  0.82842504  0.46338622    -0.16300
C478        C  0.64108849  0.81554528  0.45152387     0.07700
C479        C  0.61143609  0.80107425  0.43713734     0.09600
C480        C  0.58617865  0.78921738  0.42424598    -0.17200
C481        C  0.91529443  0.78901205  0.58336327    -0.16300
C482        C  0.89017561  0.80094888  0.57030482     0.07700
C483        C  0.86077796  0.81527933  0.55532076     0.09600
C484        C  0.83575566  0.82805267  0.54287939    -0.17200
C485        C  0.79255450  0.92062756  0.41855192    -0.16300
C486        C  0.80453942  0.93398303  0.39354810     0.07700
C487        C  0.81873141  0.94913024  0.36408373     0.09600
C488        C  0.83123696  0.96155964  0.33885686    -0.17200
C489        C  0.33448754  0.67234557  0.46043023    -0.16300
C490        C  0.35981803  0.68543441  0.44883871     0.07700
C491        C  0.38958683  0.70029110  0.43495257     0.09600
C492        C  0.41497940  0.71248992  0.42255314    -0.17200
C493        C  0.08469575  0.70934463  0.58157177    -0.16300
C494        C  0.10981795  0.69761111  0.56824574     0.07700
C495        C  0.13935637  0.68358288  0.55313651     0.09600
C496        C  0.16456394  0.67112978  0.54065069    -0.17200
C497        C  0.20962139  0.58125070  0.41471115    -0.16300
C498        C  0.19756897  0.56853744  0.38942259     0.07700
C499        C  0.18315582  0.55403226  0.35975721     0.09600
C500        C  0.17049007  0.54184141  0.33451106    -0.17200
C501        C  0.32906405  0.54029955  0.66459178    -0.16300
C502        C  0.31613333  0.55224344  0.63935598     0.07700
C503        C  0.30143022  0.56682158  0.60985788     0.09600
C504        C  0.28923202  0.57980994  0.58477286    -0.17200
loop_ 
_geom_bond_atom_site_label_1 
_geom_bond_atom_site_label_2 
_geom_bond_distance 
_geom_bond_site_symmetry_2 
_ccdc_geom_bond_type 
In1           O3   2.247       .  S
In1           O4   2.250       .  S
In1          O12   2.243       .  S
In1           O6   2.249       .  S
In1           O8   2.250       .  S
In1           O9   2.248       .  S
In1          O10   2.247       .  S
In1          O13   2.245       .  S
C2            O8   1.259       .  A
C2           O10   1.259       .  A
C2          C489   1.436       .  S
O3           C11   1.258       .  A
O4           C11   1.259       .  A
C5           O12   1.259       .  A
C5            O6   1.260       .  A
C5          C496   1.434       .  S
C7            O9   1.260       .  A
C7           O13   1.259       .  A
C7          C497   1.435       .  S
C11         C504   1.435       .  S
In14         O16   2.244       .  S
In14         O17   2.249       .  S
In14         O25   2.247       .  S
In14         O19   2.247       .  S
In14         O21   2.247       .  S
In14         O22   2.249       .  S
In14         O23   2.247       .  S
In14         O26   2.245       .  S
C15          O21   1.259       .  A
C15          O23   1.259       .  A
C15         C485   1.434       .  S
O16          C24   1.258       .  A
O17          C24   1.259       .  A
C18          O25   1.259       .  A
C18          O19   1.259       .  A
C18         C476   1.434       .  S
C20          O22   1.259       .  A
C20          O26   1.259       .  A
C20         C477   1.434       .  S
C24         C484   1.433       .  S
In27         O29   2.245       .  S
In27         O30   2.248       .  S
In27         O38   2.246   1_455  S
In27         O32   2.250   1_455  S
In27         O34   2.249       .  S
In27         O35   2.245   1_455  S
In27         O36   2.247       .  S
In27         O39   2.245   1_455  S
C28          O34   1.259       .  A
C28          O36   1.258       .  A
C28         C469   1.435       .  S
O29          C37   1.258       .  A
O30          C37   1.259       .  A
C31          O38   1.258       .  A
C31          O32   1.259       .  A
C31         C465   1.436       .  S
C33          O35   1.259       .  A
C33          O39   1.259       .  A
C33         C481   1.433       .  S
C37         C493   1.434       .  S
In40         O42   2.247       .  S
In40         O43   2.250       .  S
In40         O51   2.247       .  S
In40         O45   2.251       .  S
In40         O47   2.249       .  S
In40         O48   2.244       .  S
In40         O49   2.248       .  S
In40         O52   2.243       .  S
C41          O47   1.259       .  A
C41          O49   1.259       .  A
C41         C460   1.435       .  S
O42          C50   1.259       .  A
O43          C50   1.259       .  A
C44          O51   1.258       .  A
C44          O45   1.259       .  A
C44         C456   1.436       .  S
C46          O48   1.259       .  A
C46          O52   1.259       .  A
C46         C449   1.432       .  S
C50         C464   1.435       .  S
In53         O55   2.245   1_545  S
In53         O56   2.248   1_545  S
In53         O64   2.246       .  S
In53         O58   2.250       .  S
In53         O60   2.250   1_545  S
In53         O61   2.249       .  S
In53         O62   2.246   1_545  S
In53         O65   2.243       .  S
C54          O60   1.260       .  A
C54          O62   1.259       .  A
C54         C457   1.435       .  S
O55          C63   1.259       .  A
O56          C63   1.259       .  A
C57          O64   1.258       .  A
C57          O58   1.259       .  A
C57         C444   1.435       .  S
C59          O61   1.259       .  A
C59          O65   1.258       .  A
C59         C445   1.434       .  S
C63         C473   1.434       .  S
In66         O68   2.241   1_554  S
In66         O69   2.245   1_554  S
In66         O77   2.248       .  S
In66         O71   2.250       .  S
In66         O73   2.251   1_554  S
In66         O74   2.247       .  S
In66         O75   2.247   1_554  S
In66         O78   2.244       .  S
C67          O73   1.259       .  A
C67          O75   1.258       .  A
C67         C437   1.435       .  S
O68          C76   1.258       .  A
O69          C76   1.259       .  A
C70          O77   1.259       .  A
C70          O71   1.260       .  A
C70         C432   1.437       .  S
C72          O74   1.259       .  A
C72          O78   1.259       .  A
C72         C433   1.434       .  S
C76         C452   1.432       .  S
In79         O81   2.249       .  S
In79         O82   2.250       .  S
In79         O90   2.246       .  S
In79         O84   2.249       .  S
In79         O86   2.249       .  S
In79         O87   2.250       .  S
In79         O88   2.248       .  S
In79         O91   2.247       .  S
C80          O86   1.259       .  A
C80          O88   1.259       .  A
C80         C424   1.435       .  S
O81          C89   1.258       .  A
O82          C89   1.259       .  A
C83          O90   1.259       .  A
C83          O84   1.259       .  A
C83         C440   1.435       .  S
C85          O87   1.259       .  A
C85          O91   1.259       .  A
C85         C428   1.436       .  S
C89         C468   1.436       .  S
In92         O94   2.246       .  S
In92         O95   2.250       .  S
In92        O103   2.248       .  S
In92         O97   2.250       .  S
In92         O99   2.254       .  S
In92        O100   2.249       .  S
In92        O101   2.247       .  S
In92        O104   2.246       .  S
C93          O99   1.260       .  A
C93         O101   1.258       .  A
C93         C429   1.437       .  S
O94         C102   1.258       .  A
O95         C102   1.259       .  A
C96         O103   1.258       .  A
C96          O97   1.259       .  A
C96         C409   1.436       .  S
C98         O100   1.259       .  A
C98         O104   1.259       .  A
C98         C413   1.435       .  S
C102        C417   1.435       .  S
In105       O107   2.246       .  S
In105       O108   2.250       .  S
In105       O116   2.250       .  S
In105       O110   2.250       .  S
In105       O112   2.250       .  S
In105       O113   2.249       .  S
In105       O114   2.248       .  S
In105       O117   2.245       .  S
C106        O112   1.259       .  A
C106        O114   1.258       .  A
C106        C408   1.435       .  S
O107        C115   1.258       .  A
O108        C115   1.259       .  A
C109        O116   1.259       .  A
C109        O110   1.259       .  A
C109        C401   1.437       .  S
C111        O113   1.259       .  A
C111        O117   1.258       .  A
C111        C400   1.434       .  S
C115        C420   1.435       .  S
In118       O120   2.246       .  S
In118       O121   2.248       .  S
In118       O129   2.248       .  S
In118       O123   2.253       .  S
In118       O125   2.250   1_545  S
In118       O126   2.246   1_545  S
In118       O127   2.247   1_545  S
In118       O130   2.245   1_545  S
C119        O125   1.259       .  A
C119        O127   1.258       .  A
C119        C392   1.435       .  S
O120        C128   1.258       .  A
O121        C128   1.258       .  A
C122        O129   1.258       .  A
C122        O123   1.259       .  A
C122        C385   1.437       .  S
C124        O126   1.259       .  A
C124        O130   1.259       .  A
C124        C396   1.434       .  S
C128        C397   1.434       .  S
In131       O133   2.245       .  S
In131       O134   2.250       .  S
In131       O142   2.245       .  S
In131       O136   2.247       .  S
In131       O138   2.250       .  S
In131       O139   2.251       .  S
In131       O140   2.245       .  S
In131       O143   2.246       .  S
C132        O138   1.259       .  A
C132        O140   1.258       .  A
C132        C416   1.435       .  S
O133        C141   1.258       .  A
O134        C141   1.259       .  A
C135        O142   1.259       .  A
C135        O136   1.259       .  A
C135        C393   1.434       .  S
C137        O139   1.259       .  A
C137        O143   1.259       .  A
C137        C492   1.436       .  S
C141        C480   1.434       .  S
In144       O146   2.244   1_554  S
In144       O147   2.247   1_554  S
In144       O155   2.245   1_554  S
In144       O149   2.249   1_554  S
In144       O151   2.247       .  S
In144       O152   2.248       .  S
In144       O153   2.245       .  S
In144       O156   2.243       .  S
C145        O151   1.259       .  A
C145        O153   1.259       .  A
C145        C405   1.434       .  S
O146        C154   1.258       .  A
O147        C154   1.259       .  A
C148        O155   1.258       .  A
C148        O149   1.259       .  A
C148        C381   1.434       .  S
C150        O152   1.259       .  A
C150        O156   1.258       .  A
C150        C380   1.433       .  S
C154        C448   1.434       .  S
In157       O159   2.247       .  S
In157       O160   2.249       .  S
In157       O168   2.245   1_455  S
In157       O162   2.248   1_455  S
In157       O164   2.247       .  S
In157       O165   2.251   1_455  S
In157       O166   2.244       .  S
In157       O169   2.247   1_455  S
C158        O164   1.259       .  A
C158        O166   1.259       .  A
C158        C372   1.434       .  S
O159        C167   1.259       .  A
O160        C167   1.259       .  A
C161        O168   1.259       .  A
C161        O162   1.259       .  A
C161        C384   1.434       .  S
C163        O165   1.259       .  A
C163        O169   1.258       .  A
C163        C425   1.436       .  S
C167        C376   1.436       .  S
In170       O172   2.245   1_554  S
In170       O173   2.253   1_554  S
In170       O181   2.248       .  S
In170       O175   2.247       .  S
In170       O177   2.248   1_554  S
In170       O178   2.250       .  S
In170       O179   2.247   1_554  S
In170       O182   2.244       .  S
C171        O177   1.259       .  A
C171        O179   1.259       .  A
C171        C365   1.435       .  S
O172        C180   1.258       .  A
O173        C180   1.259       .  A
C174        O181   1.259       .  A
C174        O175   1.259       .  A
C174        C389   1.435       .  S
C176        O178   1.259       .  A
C176        O182   1.258       .  A
C176        C361   1.434       .  S
C180        C461   1.436       .  S
In183       O185   2.247       .  S
In183       O186   2.251       .  S
In183       O194   2.247       .  S
In183       O188   2.251       .  S
In183       O190   2.250   1_565  S
In183       O191   2.250   1_565  S
In183       O192   2.246   1_565  S
In183       O195   2.246   1_565  S
C184        O190   1.259       .  A
C184        O192   1.259       .  A
C184        C373   1.436       .  S
O185        C193   1.258       .  A
O186        C193   1.259       .  A
C187        O194   1.258       .  A
C187        O188   1.259       .  A
C187        C472   1.435       .  S
C189        O191   1.259       .  A
C189        O195   1.258       .  A
C189        C360   1.435       .  S
C193        C368   1.436       .  S
In196       O198   2.245   1_545  S
In196       O199   2.249   1_545  S
In196       O207   2.248       .  S
In196       O201   2.249       .  S
In196       O203   2.251   1_545  S
In196       O204   2.248       .  S
In196       O205   2.247   1_545  S
In196       O208   2.243       .  S
C197        O203   1.259       .  A
C197        O205   1.258       .  A
C197        C353   1.436       .  S
O198        C206   1.258       .  A
O199        C206   1.259       .  A
C200        O207   1.259       .  A
C200        O201   1.259       .  A
C200        C349   1.436       .  S
C202        O204   1.259       .  A
C202        O208   1.258       .  A
C202        C377   1.433       .  S
C206        C488   1.434       .  S
In209       O211   2.242   1_655  S
In209       O212   2.250   1_655  S
In209       O220   2.246   1_655  S
In209       O214   2.250   1_655  S
In209       O216   2.249       .  S
In209       O217   2.248       .  S
In209       O218   2.246       .  S
In209       O221   2.243       .  S
C210        O216   1.260       .  A
C210        O218   1.259       .  A
C210        C356   1.436       .  S
O211        C219   1.258       .  A
O212        C219   1.260       .  A
C213        O220   1.259       .  A
C213        O214   1.259       .  A
C213        C348   1.435       .  S
C215        O217   1.260       .  A
C215        O221   1.259       .  A
C215        C436   1.434       .  S
C219        C364   1.434       .  S
In222       O224   2.245       .  S
In222       O225   2.250       .  S
In222       O233   2.248       .  S
In222       O227   2.247       .  S
In222       O229   2.250       .  S
In222       O230   2.253       .  S
In222       O231   2.247       .  S
In222       O234   2.247       .  S
C223        O229   1.259       .  A
C223        O231   1.258       .  A
C223        C345   1.435       .  S
O224        C232   1.258       .  A
O225        C232   1.260       .  A
C226        O233   1.259       .  A
C226        O227   1.259       .  A
C226        C341   1.435       .  S
C228        O230   1.260       .  A
C228        O234   1.258       .  A
C228        C337   1.437       .  S
C232        C500   1.435       .  S
In235       O237   2.246       .  S
In235       O238   2.247       .  S
In235       O246   2.246       .  S
In235       O240   2.250       .  S
In235       O242   2.253       .  S
In235       O243   2.250       .  S
In235       O244   2.247       .  S
In235       O247   2.249       .  S
C236        O242   1.259       .  A
C236        O244   1.258       .  A
C236        C336   1.436       .  S
O237        C245   1.259       .  A
O238        C245   1.259       .  A
C239        O246   1.259       .  A
C239        O240   1.260       .  A
C239        C501   1.435       .  S
C241        O243   1.259       .  A
C241        O247   1.259       .  A
C241        C453   1.436       .  S
C245        C332   1.435       .  S
In248       O250   2.249       .  S
In248       O251   2.250       .  S
In248       O259   2.249       .  S
In248       O253   2.251       .  S
In248       O255   2.251   1_554  S
In248       O256   2.249   1_554  S
In248       O257   2.242   1_554  S
In248       O260   2.248   1_554  S
C249        O255   1.260       .  A
C249        O257   1.258       .  A
C249        C369   1.434       .  S
O250        C258   1.259       .  A
O251        C258   1.259       .  A
C252        O259   1.259       .  A
C252        O253   1.260       .  A
C252        C404   1.437       .  S
C254        O256   1.259       .  A
C254        O260   1.259       .  A
C254        C333   1.436       .  S
C258        C340   1.437       .  S
In261       O263   2.246       .  S
In261       O264   2.252       .  S
In261       O272   2.249       .  S
In261       O266   2.251       .  S
In261       O268   2.250       .  S
In261       O269   2.250       .  S
In261       O270   2.248       .  S
In261       O273   2.248       .  S
C262        O268   1.259       .  A
C262        O270   1.258       .  A
C262        C357   1.435       .  S
O263        C271   1.258       .  A
O264        C271   1.259       .  A
C265        O272   1.259       .  A
C265        O266   1.259       .  A
C265        C388   1.437       .  S
C267        O269   1.259       .  A
C267        O273   1.259       .  A
C267        C328   1.436       .  S
C271        C324   1.435       .  S
In274       O276   2.246       .  S
In274       O277   2.250       .  S
In274       O285   2.248       .  S
In274       O279   2.248       .  S
In274       O281   2.251   1_455  S
In274       O282   2.247   1_455  S
In274       O283   2.246   1_455  S
In274       O286   2.244   1_455  S
C275        O281   1.259       .  A
C275        O283   1.258       .  A
C275        C352   1.435       .  S
O276        C284   1.258       .  A
O277        C284   1.259       .  A
C278        O285   1.259       .  A
C278        O279   1.259       .  A
C278        C344   1.435       .  S
C280        O282   1.259       .  A
C280        O286   1.258       .  A
C280        C317   1.433       .  S
C284        C325   1.435       .  S
In287       O289   2.240       .  S
In287       O290   2.246       .  S
In287       O298   2.247       .  S
In287       O292   2.249       .  S
In287       O294   2.249       .  S
In287       O295   2.248       .  S
In287       O296   2.246       .  S
In287       O299   2.240       .  S
C288        O294   1.260       .  A
C288        O296   1.259       .  A
C288        C421   1.435       .  S
O289        C297   1.259       .  A
O290        C297   1.260       .  A
C291        O298   1.259       .  A
C291        O292   1.259       .  A
C291        C412   1.435       .  S
C293        O295   1.259       .  A
C293        O299   1.258       .  A
C293        C320   1.432       .  S
C297        C313   1.432       .  S
In300       O302   2.242       .  S
In300       O303   2.246       .  S
In300       O311   2.245       .  S
In300       O305   2.249       .  S
In300       O307   2.250       .  S
In300       O308   2.248       .  S
In300       O309   2.245       .  S
In300       O312   2.247       .  S
C301        O307   1.259       .  A
C301        O309   1.258       .  A
C301        C329   1.435       .  S
O302        C310   1.259       .  A
O303        C310   1.259       .  A
C304        O311   1.259       .  A
C304        O305   1.259       .  A
C304        C441   1.435       .  S
C306        O308   1.259       .  A
C306        O312   1.259       .  A
C306        C321   1.435       .  S
C310        C316   1.433       .  S
C313        C314   1.204       .  T
C314        C315   1.409       .  S
C315        C316   1.204       .  T
C317        C318   1.204       .  T
C318        C319   1.409       .  S
C319        C320   1.204       .  T
C321        C322   1.206       .  T
C322        C323   1.412       .  S
C323        C324   1.206       .  T
C325        C326   1.206       .  T
C326        C327   1.412       .  S
C327        C328   1.206       .  T
C329        C330   1.205       .  T
C330        C331   1.412       .  S
C331        C332   1.205       .  T
C333        C334   1.206       .  T
C334        C335   1.413       .  S
C335        C336   1.206       .  T
C337        C338   1.206       .  T
C338        C339   1.413       .  S
C339        C340   1.206       .  T
C341        C342   1.206       .  T
C342        C343   1.412       .  S
C343        C344   1.206       .  T
C345        C346   1.206       .  T
C346        C347   1.412       .  S
C347        C348   1.206       .  T
C349        C350   1.206       .  T
C350        C351   1.412       .  S
C351        C352   1.206       .  T
C353        C354   1.206       .  T
C354        C355   1.412       .  S
C355        C356   1.206       .  T
C357        C358   1.206       .  T
C358        C359   1.412       .  S
C359        C360   1.206       .  T
C361        C362   1.205       .  T
C362        C363   1.411       .  S
C363        C364   1.205       .  T
C365        C366   1.206       .  T
C366        C367   1.412       .  S
C367        C368   1.206       .  T
C369        C370   1.205       .  T
C370        C371   1.411       .  S
C371        C372   1.205       .  T
C373        C374   1.206       .  T
C374        C375   1.412       .  S
C375        C376   1.206       .  T
C377        C378   1.204       .  T
C378        C379   1.410       .  S
C379        C380   1.204       .  T
C381        C382   1.205       .  T
C382        C383   1.411       .  S
C383        C384   1.205       .  T
C385        C386   1.206       .  T
C386        C387   1.413       .  S
C387        C388   1.206       .  T
C389        C390   1.205       .  T
C390        C391   1.412       .  S
C391        C392   1.205       .  T
C393        C394   1.205       .  T
C394        C395   1.410       .  S
C395        C396   1.205       .  T
C397        C398   1.205       .  T
C398        C399   1.411       .  S
C399        C400   1.205       .  T
C401        C402   1.206       .  T
C402        C403   1.414       .  S
C403        C404   1.207       .  T
C405        C406   1.205       .  T
C406        C407   1.411       .  S
C407        C408   1.205       .  T
C409        C410   1.206       .  T
C410        C411   1.412       .  S
C411        C412   1.206       .  T
C413        C414   1.205       .  T
C414        C415   1.412       .  S
C415        C416   1.205       .  T
C417        C418   1.205       .  T
C418        C419   1.411       .  S
C419        C420   1.205       .  T
C421        C422   1.206       .  T
C422        C423   1.412       .  S
C423        C424   1.206       .  T
C425        C426   1.206       .  T
C426        C427   1.412       .  S
C427        C428   1.206       .  T
C429        C430   1.207       .  T
C430        C431   1.414       .  S
C431        C432   1.207       .  T
C433        C434   1.205       .  T
C434        C435   1.411       .  S
C435        C436   1.205       .  T
C437        C438   1.205       .  T
C438        C439   1.412       .  S
C439        C440   1.205       .  T
C441        C442   1.205       .  T
C442        C443   1.412       .  S
C443        C444   1.205       .  T
C445        C446   1.205       .  T
C446        C447   1.410       .  S
C447        C448   1.205       .  T
C449        C450   1.204       .  T
C450        C451   1.409       .  S
C451        C452   1.204       .  T
C453        C454   1.206       .  T
C454        C455   1.413       .  S
C455        C456   1.206       .  T
C457        C458   1.206       .  T
C458        C459   1.412       .  S
C459        C460   1.206       .  T
C461        C462   1.206       .  T
C462        C463   1.412       .  S
C463        C464   1.206       .  T
C465        C466   1.206       .  T
C466        C467   1.412       .  S
C467        C468   1.206       .  T
C469        C470   1.206       .  T
C470        C471   1.412       .  S
C471        C472   1.206       .  T
C473        C474   1.205       .  T
C474        C475   1.411       .  S
C475        C476   1.205       .  T
C477        C478   1.205       .  T
C478        C479   1.411       .  S
C479        C480   1.205       .  T
C481        C482   1.204       .  T
C482        C483   1.410       .  S
C483        C484   1.204       .  T
C485        C486   1.205       .  T
C486        C487   1.411       .  S
C487        C488   1.205       .  T
C489        C490   1.206       .  T
C490        C491   1.412       .  S
C491        C492   1.206       .  T
C493        C494   1.205       .  T
C494        C495   1.411       .  S
C495        C496   1.205       .  T
C497        C498   1.205       .  T
C498        C499   1.412       .  S
C499        C500   1.205       .  T
C501        C502   1.206       .  T
C502        C503   1.412       .  S
C503        C504   1.206       .  T
