geometry optimzed in LAMMPS
_audit_creation_date              2020-11-30 
_audit_creation_method            'lammps2cif' 
_symmetry_space_group_name_H-M    'P1' 
_symmetry_Int_Tables_number       1 
_symmetry_cell_setting            triclinic 
loop_ 
_symmetry_equiv_pos_as_xyz 
  x,y,z 
_cell_length_a                    29.86170423 
_cell_length_b                    29.903018585781382 
_cell_length_c                    39.76535771970829 
_cell_angle_alpha                 89.97737719961954 
_cell_angle_beta                  89.97982682194063 
_cell_angle_gamma                 119.9848887937285 
loop_ 
_atom_site_label 
_atom_site_type_symbol 
_atom_site_fract_x 
_atom_site_fract_y 
_atom_site_fract_z 
_atom_site_charge 
C1          C  0.34470820  0.21157558  0.22731739     0.80100
N2          N  0.38819674  0.23326621  0.20810174    -0.78200
C3          C  0.41097989  0.20544797  0.19918046     0.82600
N4          N  0.38996489  0.15574168  0.20946130    -0.78100
C5          C  0.34697264  0.13357381  0.22902339     0.82700
N6          N  0.32457450  0.16192608  0.23780510    -0.79800
C7          C  0.07454913  0.40615618  0.28031432     0.80100
N8          N  0.09801343  0.44900337  0.29965763    -0.78200
C9          C  0.14723791  0.46800037  0.31024005     0.82600
N10         N  0.17337646  0.44315745  0.30190531    -0.78100
C11         C  0.15071086  0.39992841  0.28242663     0.82700
N12         N  0.10133932  0.38198027  0.27177657    -0.79800
C13         C  0.69377711  0.21468572  0.22978043     0.80100
N14         N  0.66480491  0.16453095  0.23950201    -0.78200
C15         C  0.61444630  0.13608593  0.22995404     0.82600
N16         N  0.59392603  0.15808176  0.20990554    -0.78100
C17         C  0.62251198  0.20846030  0.20070983     0.82700
N18         N  0.67222003  0.23659524  0.21082611    -0.79800
C19         C  0.69372166  0.47835168  0.23094371     0.80100
N20         N  0.67200837  0.43750357  0.20956752    -0.78200
C21         C  0.62191307  0.41689725  0.19977654     0.82600
N22         N  0.59372702  0.43808424  0.21086501    -0.78100
C23         C  0.61474048  0.47921440  0.23199738     0.82700
N24         N  0.66489481  0.49921628  0.24171733    -0.79800
C25         C  0.43228225  0.67747602  0.28609211     0.80100
N26         N  0.45130053  0.72701955  0.27545530    -0.78200
C27         C  0.42639006  0.75351104  0.28303150     0.82600
N28         N  0.38240958  0.72938225  0.30163117    -0.78100
C29         C  0.36249850  0.67959111  0.31168282     0.82700
N30         N  0.38753532  0.65377089  0.30384626    -0.79800
C31         C  0.07688442  0.67313608  0.28214890     0.80100
N32         N  0.09952242  0.65238841  0.30137544    -0.78200
C33         C  0.14989636  0.68131083  0.31070944     0.82600
N34         N  0.17718623  0.73171485  0.30174247    -0.78100
C35         C  0.15445143  0.75330688  0.28352495     0.82700
N36         N  0.10446903  0.72385507  0.27352639    -0.79800
O37         O  0.21966375  0.68469643  0.34114122    -0.81900
C38         C  0.17054174  0.50983097  0.42391769     0.97500
O39         O  0.14082339  0.52131883  0.40879192    -0.71000
O40         O  0.14351311  0.60934293  0.41726932    -0.74600
Al41       Al  0.14958989  0.57429858  0.37912738     1.49000
C42         C  0.16813439  0.65693373  0.42381001     0.92700
O43         O  0.29475533  0.68402034  0.41775253    -0.80800
O44         O  0.29588959  0.60926568  0.34165430    -0.74400
Al45       Al  0.25438983  0.67867073  0.37945647     1.90100
O46         O  0.30640516  0.61813582  0.40961547    -0.73400
O47         O  0.20989896  0.52143617  0.34946277    -0.73300
O48         O  0.21826601  0.53290143  0.41753798    -0.78900
O49         O  0.14460744  0.53405868  0.34097615    -0.77100
O50         O  0.21940173  0.60894457  0.37938459    -1.13300
O51         O  0.14202776  0.61901747  0.34939241    -0.72500
C52         C  0.17207115  0.66029865  0.33448317     0.98200
C53         C  0.31770491  0.65943647  0.42451678     0.94600
Al54       Al  0.25418734  0.57385445  0.37956228     1.55600
O55         O  0.20967013  0.68669160  0.40900062    -0.77100
C56         C  0.16886715  0.51072372  0.33433035     0.98800
C57         C  0.31886741  0.65686561  0.33513772     0.93700
O58         O  0.30705221  0.68655489  0.34994390    -0.82400
C59         C  0.61596869  0.13023161  0.03531087     0.80100
N60         N  0.66571759  0.15944996  0.02465355    -0.78200
C61         C  0.69389611  0.21026551  0.03317237     0.82600
N62         N  0.67146195  0.23144135  0.05218479    -0.78100
C63         C  0.62152610  0.20273267  0.06238099     0.82700
N64         N  0.59394701  0.15214580  0.05392776    -0.79800
C65         C  0.42389532  0.75146877  0.47904339     0.80100
N66         N  0.44642881  0.72308046  0.48749807    -0.78200
C67         C  0.42620211  0.67345393  0.47689012     0.82600
N68         N  0.38352935  0.65255389  0.45699943    -0.78100
C69         C  0.36047423  0.68031674  0.44861011     0.82700
N70         N  0.38104730  0.72965570  0.45941937    -0.79800
C71         C  0.69342471  0.47634393  0.02561331     0.80100
N72         N  0.67332026  0.43560725  0.04713152    -0.78200
C73         C  0.62421620  0.41531374  0.05867995     0.82600
N74         N  0.59526528  0.43652991  0.04906105    -0.78100
C75         C  0.61425108  0.47698701  0.02737245     0.82700
N76         N  0.66358866  0.49677470  0.01600816    -0.79800
C77         C  0.07458448  0.67632410  0.47291034     0.80100
N78         N  0.10459659  0.72591666  0.48355468    -0.78200
C79         C  0.15583451  0.75283628  0.47563821     0.82600
N80         N  0.17656418  0.72932541  0.45727116    -0.78100
C81         C  0.14701023  0.67946930  0.44722199     0.82700
N82         N  0.09609717  0.65321713  0.45503567    -0.79800
C83         C  0.34280100  0.13274742  0.03512488     0.80100
N84         N  0.38708527  0.15521074  0.05365901    -0.78200
C85         C  0.41126391  0.20648240  0.06115708     0.82600
N86         N  0.39057575  0.23526153  0.05066237    -0.78100
C87         C  0.34600370  0.21326738  0.03284400     0.82700
N88         N  0.32268979  0.16240347  0.02484254    -0.79800
C89         C  0.07517260  0.39880675  0.47460527     0.80100
N90         N  0.09692314  0.44206314  0.45512713    -0.78200
C91         C  0.14829577  0.46673752  0.44780634     0.82600
N92         N  0.17782605  0.44756258  0.45948742    -0.78100
C93         C  0.15726220  0.40468056  0.47894281     0.82700
N94         N  0.10588217  0.38070738  0.48639013    -0.79800
O95         O  0.62817589  0.35080681  0.09103009    -0.81900
C96         C  0.45375341  0.22647648  0.17491592     0.97500
O97         O  0.46443787  0.26714669  0.15925693    -0.71000
O98         O  0.55263162  0.35230513  0.16796010    -0.74600
Al99       Al  0.51794726  0.31177784  0.12951836     1.49000
C100        C  0.60025973  0.37551914  0.17458775     0.92700
O101        O  0.62711257  0.27738716  0.16898643    -0.80800
O102        O  0.55216832  0.20075285  0.09234871    -0.74400
Al103      Al  0.62232135  0.31139839  0.13002524     1.90100
O104        O  0.56206228  0.19951513  0.16028008    -0.73400
O105        O  0.46471703  0.19873301  0.10082483    -0.73300
O106        O  0.47733375  0.20234932  0.16873668    -0.78900
O107        O  0.47790916  0.27648757  0.09108157    -0.77100
O108        O  0.55257155  0.27676497  0.12997790    -1.13300
O109        O  0.56346560  0.36432096  0.09964581    -0.72500
C110        C  0.60412248  0.37425713  0.08414284     0.98200
C111        C  0.60251593  0.22991911  0.17583837     0.94600
Al112      Al  0.51748170  0.20709347  0.13048094     1.55600
O113        O  0.63050057  0.36504954  0.15905029    -0.77100
C114        C  0.45428565  0.22870250  0.08504677     0.98800
C115        C  0.59987658  0.22445503  0.08606015     0.93700
O116        O  0.63017830  0.26555277  0.10113998    -0.82400
C117        C  0.26927523  0.37746879  0.99087899    -0.22500
C118        C  0.24241454  0.32700790  0.00318098     0.09400
C119        C  0.18857829  0.30275273  0.50819152     0.09800
C120        C  0.16259046  0.32962501  0.50096434    -0.17500
C121        C  0.18883479  0.38072078  0.48880703    -0.27900
C122        C  0.24365067  0.40492569  0.98362060     0.18200
C123        C  0.27095020  0.29955160  0.00975619     0.12100
C124        C  0.15864563  0.24803358  0.52102594    -0.12200
H125        H  0.12114730  0.30972462  0.50424873     0.12400
C126        C  0.27594975  0.45953021  0.97082788    -0.23100
H127        H  0.31058260  0.39522159  0.98667619     0.08100
C128        C  0.28008312  0.27266467  0.48421041     0.04400
C129        C  0.30391023  0.24358172  0.99251760    -0.20300
C130        C  0.32016477  0.24304311  0.02553749    -0.12600
C131        C  0.31071085  0.27036002  0.05106271     0.13100
C132        C  0.28733833  0.29929010  0.04259151    -0.23000
C133        C  0.26343366  0.27293685  0.44850731    -0.06100
H134        H  0.31210978  0.22371031  0.47307456     0.14600
C135        C  0.32103681  0.26729617  0.08784106    -0.16300
H136        H  0.27980555  0.32008142  0.06202989     0.09000
H137        H  0.26536974  0.46228838  0.94447493     0.06800
H138        H  0.31789092  0.47239181  0.97084759     0.08000
H139        H  0.27048230  0.48649002  0.98720871     0.07100
H140        H  0.17331313  0.24550404  0.54619779     0.01900
H141        H  0.16315874  0.22175297  0.50342851     0.02400
H142        H  0.11673012  0.23455201  0.52346292     0.05900
H143        H  0.27342060  0.24953272  0.43171587     0.04900
H144        H  0.28294282  0.31312912  0.43879633    -0.00900
H145        H  0.22092090  0.25669710  0.44755732     0.00600
H146        H  0.35057838  0.30602244  0.09705300     0.04300
H147        H  0.33387339  0.23930571  0.09369349     0.06200
H148        H  0.28455590  0.25435477  0.10196537     0.07100
C149        C  0.25283022  0.89796868  0.47520576    -0.22500
C150        C  0.24290686  0.91232995  0.00662944     0.09400
C151        C  0.20485047  0.87454037  0.02778275     0.09800
C152        C  0.17786212  0.82275950  0.01722187    -0.17500
C153        C  0.18806489  0.80791346  0.48594673    -0.27900
C154        C  0.22624150  0.84613850  0.46464713     0.18200
C155        C  0.26880167  0.96825049  0.01496524     0.12100
C156        C  0.19289674  0.88882433  0.06158936    -0.12200
H157        H  0.14831952  0.79397589  0.03338157     0.12400
C158        C  0.23777422  0.83343047  0.43015805    -0.23100
H159        H  0.28093055  0.92746984  0.45868715     0.08100
C160        C  0.32077355  0.99625024  0.02547604     0.04400
C161        C  0.34360544  0.04954860  0.03168485    -0.20300
C162        C  0.31577415  0.07593474  0.02776397    -0.12600
C163        C  0.26292180  0.04694763  0.01778408     0.13100
C164        C  0.24063082  0.99382917  0.01133729    -0.23000
C165        C  0.35188927  0.96972119  0.03058483    -0.06100
H166        H  0.38368431  0.07066565  0.03951379     0.14600
C167        C  0.22868081  0.07047521  0.01439807    -0.16300
H168        H  0.20067666  0.97181289  0.00327538     0.09000
H169        H  0.25489711  0.80807859  0.43230330     0.06800
H170        H  0.26593412  0.86863489  0.41628305     0.08000
H171        H  0.20170761  0.81395585  0.41507282     0.07100
H172        H  0.17825594  0.91613286  0.05840565     0.01900
H173        H  0.22849670  0.90727312  0.07717829     0.02400
H174        H  0.16304490  0.85444947  0.07533973     0.05900
H175        H  0.39163170  0.99695929  0.03957653     0.04900
H176        H  0.35509593  0.95388287  0.50410999    -0.00900
H177        H  0.33262934  0.93857317  0.04959664     0.00600
H178        H  0.24277387  0.09923345  0.99370741     0.04300
H179        H  0.22787383  0.08886122  0.03847830     0.06200
H180        H  0.18815145  0.04107097  0.00827244     0.07100
C181        C  0.83197168  0.50637180  0.50806593    -0.22500
C182        C  0.85610338  0.55940491  0.00114145     0.09400
C183        C  0.82624688  0.58379028  0.99976374     0.09800
C184        C  0.77333700  0.55526546  0.00711315    -0.17500
C185        C  0.74913884  0.50259398  0.01584696    -0.27900
C186        C  0.77923176  0.47773575  0.01600272     0.18200
C187        C  0.91233560  0.58866456  0.99444941     0.12100
C188        C  0.85039859  0.64012648  0.99071193    -0.12200
H189        H  0.75109462  0.57484038  0.00671686     0.12400
C190        C  0.75548960  0.42053659  0.52229694    -0.23100
H191        H  0.85525662  0.48785914  0.50835832     0.08100
C192        C  0.94837479  0.61443956  0.02042377     0.04400
C193        C  0.00115237  0.64395268  0.01251704    -0.20300
C194        C  0.01840693  0.64806500  0.47925554    -0.12600
C195        C  0.98204578  0.62347258  0.45299586     0.13100
C196        C  0.92946055  0.59329000  0.46095218    -0.23000
C197        C  0.93104980  0.61050988  0.05641566    -0.06100
H198        H  0.02912604  0.66315910  0.03243970     0.14600
C199        C  0.99666111  0.62984835  0.41623462    -0.16300
H200        H  0.90146821  0.57453771  0.44095001     0.09000
H201        H  0.74312831  0.41232581  0.04966484     0.06800
H202        H  0.78391929  0.40736062  0.51833292     0.08000
H203        H  0.72242996  0.39804598  0.50507265     0.07100
H204        H  0.86757877  0.64674385  0.96516127     0.01900
H205        H  0.88116172  0.66396444  0.00908082     0.02400
H206        H  0.82157205  0.65325941  0.99078599     0.05900
H207        H  0.96420044  0.63294254  0.07360380     0.04900
H208        H  0.91107323  0.56951431  0.06455908    -0.00900
H209        H  0.90404935  0.62570685  0.05880432     0.00600
H210        H  0.98785921  0.59202040  0.40554713     0.04300
H211        H  0.03788487  0.65817963  0.41157395     0.06200
H212        H  0.97376085  0.64394826  0.40244298     0.07100
C213        C  0.50368938  0.50625469  0.01419856    -0.22500
C214        C  0.53111439  0.55706616  0.00229695     0.09400
C215        C  0.58521422  0.58163014  0.49807759     0.09800
C216        C  0.61059391  0.55404603  0.50575151    -0.17500
C217        C  0.58358605  0.50253835  0.01829163    -0.27900
C218        C  0.52895128  0.47859069  0.02240472     0.18200
C219        C  0.50312477  0.58612688  0.49572017     0.12100
C220        C  0.61605787  0.63648466  0.48568244    -0.12200
H221        H  0.65212768  0.57311969  0.50255777     0.12400
C222        C  0.49631542  0.42399080  0.03506019    -0.23100
H223        H  0.46221234  0.48841280  0.01747955     0.08100
C224        C  0.48094026  0.58423958  0.46407213     0.04400
C225        C  0.45574635  0.61271962  0.45884103    -0.20300
C226        C  0.45263006  0.64358150  0.48441189    -0.12600
C227        C  0.47443999  0.64415154  0.01646345     0.13100
C228        C  0.49932662  0.61530699  0.02152166    -0.23000
C229        C  0.48421261  0.55244609  0.43582074    -0.06100
H230        H  0.43912711  0.61156392  0.43435864     0.14600
C231        C  0.47087299  0.67464741  0.04547878    -0.16300
H232        H  0.51651526  0.61632424  0.04575447     0.09000
H233        H  0.50235486  0.39708073  0.01902159     0.06800
H234        H  0.45440657  0.41117217  0.03449581     0.08000
H235        H  0.50627117  0.42124638  0.06158417     0.07100
H236        H  0.61166225  0.66271362  0.50341479     0.01900
H237        H  0.60205239  0.63980962  0.46046926     0.02400
H238        H  0.65787922  0.64940016  0.48361327     0.05900
H239        H  0.46508709  0.55540089  0.41263845     0.04900
H240        H  0.46498406  0.51123422  0.44342034    -0.00900
H241        H  0.52533522  0.56599932  0.42977093     0.00600
H242        H  0.48704565  0.66822548  0.06894895     0.04300
H243        H  0.42977729  0.66278818  0.05029311     0.06200
H244        H  0.49316333  0.71655271  0.03981393     0.07100
C245        C  0.93623019  0.29448438  0.99799011    -0.22500
C246        C  0.90971255  0.32144574  0.99311830     0.09400
C247        C  0.93740671  0.37441886  0.48259823     0.09800
C248        C  0.99092488  0.39788743  0.47675238    -0.17500
C249        C  0.01810380  0.37103137  0.48164006    -0.27900
C250        C  0.98972219  0.31776316  0.99234679     0.18200
C251        C  0.85385616  0.29529375  0.00179066     0.12100
C252        C  0.91016811  0.40477089  0.47714059    -0.12200
H253        H  0.01165945  0.43783182  0.46862499     0.12400
C254        C  0.01460274  0.28534961  0.99837853    -0.23100
H255        H  0.91476231  0.25489472  0.00682147     0.08100
C256        C  0.81591037  0.25950303  0.48039029     0.04400
C257        C  0.76392988  0.23098281  0.99147581    -0.20300
C258        C  0.74911707  0.24151157  0.02275013    -0.12600
C259        C  0.78766870  0.28001581  0.04369267     0.13100
C260        C  0.83939844  0.30623199  0.03285117    -0.23000
C261        C  0.83007548  0.24815225  0.44635743    -0.06100
H262        H  0.73486602  0.20444038  0.47443972     0.14600
C263        C  0.77550311  0.29237106  0.07811987    -0.16300
H264        H  0.86913714  0.33491339  0.04900295     0.09000
H265        H  0.03491411  0.28407937  0.97532250     0.06800
H266        H  0.98578202  0.24486057  0.00500813     0.08000
H267        H  0.04175029  0.30143861  0.01985874     0.07100
H268        H  0.89254388  0.40757260  0.50105288     0.01900
H269        H  0.87933227  0.38519686  0.45798161     0.02400
H270        H  0.93714236  0.44460224  0.46821169     0.05900
H271        H  0.79554493  0.21882246  0.43247357     0.04900
H272        H  0.85717082  0.23315644  0.44925538    -0.00900
H273        H  0.84885182  0.28403142  0.43107582     0.00600
H274        H  0.81100989  0.32055452  0.09171759     0.04300
H275        H  0.75599546  0.25669150  0.09357529     0.06200
H276        H  0.75042287  0.30979822  0.07589139     0.07100
C277        C  0.44996793  0.88860933  0.49646105    -0.22500
C278        C  0.50208596  0.91263688  0.00473227     0.09400
C279        C  0.52840951  0.88458186  0.00478678     0.09800
C280        C  0.50123995  0.83175028  0.99728586    -0.17500
C281        C  0.44912940  0.80721810  0.48824493    -0.27900
C282        C  0.42242916  0.83556568  0.48903571     0.18200
C283        C  0.52958764  0.96860515  0.01202590     0.12100
C284        C  0.58538160  0.91060185  0.01251100    -0.12200
H285        H  0.52215715  0.81082660  0.99685710     0.12400
C286        C  0.36503438  0.81082531  0.48281740    -0.23100
H287        H  0.43009418  0.91059865  0.49704499     0.08100
C288        C  0.55397524  0.00720137  0.48478380     0.04400
C289        C  0.58218220  0.05969128  0.49344292    -0.20300
C290        C  0.58670754  0.07439499  0.02818617    -0.12600
C291        C  0.56386964  0.03704215  0.05411574     0.13100
C292        C  0.53515075  0.98463364  0.04556607    -0.23000
C293        C  0.54918428  0.99145117  0.44840269    -0.06100
H294        H  0.60033357  0.08852750  0.47385976     0.14600
C295        C  0.57066132  0.05038914  0.09106549    -0.16300
H296        H  0.51807287  0.95585015  0.06529997     0.09000
H297        H  0.35597941  0.79787834  0.45629726     0.06800
H298        H  0.35075818  0.83826010  0.48720384     0.08000
H299        H  0.34365002  0.77760183  0.50011084     0.07100
H300        H  0.59269943  0.92731828  0.03819567     0.01900
H301        H  0.60736979  0.94191588  0.99403471     0.02400
H302        H  0.60012554  0.88311051  0.01134187     0.05900
H303        H  0.56979494  0.02542315  0.43155529     0.04900
H304        H  0.50777991  0.97032042  0.44105017     0.01700
H305        H  0.56587566  0.96597717  0.44457776     0.00600
H306        H  0.53250690  0.03914597  0.10246554     0.04300
H307        H  0.59731545  0.09181514  0.09614096     0.06200
H308        H  0.58700817  0.02871162  0.10386632     0.07100
C309        C  0.49519841  0.59492169  0.29692626    -0.22500
C310        C  0.50928698  0.59235287  0.26373584     0.09400
C311        C  0.49934140  0.61881610  0.23808650     0.09800
C312        C  0.47538755  0.64754978  0.24629146    -0.17500
C313        C  0.46077688  0.64986532  0.27950375    -0.27900
C314        C  0.47166158  0.62388602  0.30532051     0.18200
C315        C  0.53612372  0.56312755  0.25665799     0.12100
C316        C  0.51362874  0.61629479  0.20209181    -0.12200
H317        H  0.46699840  0.66735317  0.22661928     0.12400
C318        C  0.46116106  0.62727955  0.34210639    -0.23100
H319        H  0.50368420  0.57506844  0.31653288     0.08100
C320        C  0.59027373  0.58683821  0.25886988     0.04400
C321        C  0.61433881  0.55809467  0.25131598    -0.20300
C322        C  0.58561637  0.50590080  0.24149938    -0.12600
C323        C  0.53071492  0.48183997  0.24021121     0.13100
C324        C  0.50688727  0.51096921  0.24786093    -0.23000
C325        C  0.62267787  0.64266225  0.26900967    -0.06100
H326        H  0.65611151  0.57712694  0.25249293     0.14600
C327        C  0.49642619  0.42560032  0.23145497    -0.16300
H328        H  0.46517089  0.49316447  0.24672819     0.09000
H329        H  0.49733936  0.64049225  0.35669221     0.06800
H330        H  0.43170019  0.58855664  0.35142724     0.08000
H331        H  0.44775431  0.65500434  0.34740357     0.07100
H332        H  0.49303734  0.57557731  0.19337381     0.01900
H333        H  0.55594037  0.63188637  0.20002345     0.02400
H334        H  0.50302382  0.63908503  0.18515882     0.05900
H335        H  0.66454192  0.65531944  0.26944170     0.04900
H336        H  0.61133550  0.64828623  0.29456433    -0.00900
H337        H  0.61678804  0.66756185  0.25094221     0.00600
H338        H  0.45478994  0.41310110  0.23441225     0.04300
H339        H  0.50500564  0.40123251  0.24832011     0.06200
H340        H  0.50226805  0.41870463  0.20481855     0.07100
C341        C  0.83022932  0.50354035  0.25047032    -0.22500
C342        C  0.85716243  0.55739011  0.25405503     0.09400
C343        C  0.83018023  0.58470570  0.25106801     0.09800
C344        C  0.77700792  0.55767826  0.24401564    -0.17500
C345        C  0.74977373  0.50375121  0.23965712    -0.27900
C346        C  0.77687428  0.47623798  0.24339802     0.18200
C347        C  0.91359543  0.58464830  0.26117860     0.12100
C348        C  0.85744886  0.64242619  0.25565652    -0.12200
H349        H  0.75677910  0.57911877  0.24133126     0.12400
C350        C  0.74994414  0.41817160  0.24108752    -0.23100
H351        H  0.85120540  0.48283450  0.25318049     0.08100
C352        C  0.93273746  0.58513886  0.29370971     0.04400
C353        C  0.98627296  0.61332044  0.29953308    -0.20300
C354        C  0.02113222  0.64205386  0.27379140    -0.12600
C355        C  0.00194144  0.64103491  0.24108401     0.13100
C356        C  0.94840625  0.61199915  0.23516835    -0.23000
C357        C  0.89656546  0.55715500  0.32245934    -0.06100
H358        H  0.00093087  0.61416450  0.32464623     0.14600
C359        C  0.03770105  0.66939833  0.21220183    -0.16300
H360        H  0.93340471  0.61116937  0.21017997     0.09000
H361        H  0.71711954  0.40070895  0.25909278     0.06800
H362        H  0.77639248  0.40327897  0.24730164     0.08000
H363        H  0.73566096  0.40536221  0.21515510     0.07100
H364        H  0.88808636  0.66158428  0.23632417     0.01900
H365        H  0.87522978  0.65268145  0.28104304     0.02400
H366        H  0.83044999  0.65765329  0.25322362     0.05900
H367        H  0.91782331  0.56245514  0.34640117     0.04900
H368        H  0.87404562  0.51519326  0.31698745    -0.00900
H369        H  0.86956172  0.57215789  0.32605035     0.00600
H370        H  0.01633451  0.66190085  0.18809479     0.04300
H371        H  0.06661968  0.65664557  0.20934211     0.06200
H372        H  0.05786265  0.71162719  0.21675314     0.07100
C373        C  0.45001896  0.89150644  0.26969512    -0.22500
C374        C  0.49990120  0.91594795  0.25614090     0.09400
C375        C  0.52454198  0.88704211  0.25010488     0.09800
C376        C  0.49914112  0.83435930  0.25848484    -0.17500
C377        C  0.44937501  0.80929741  0.27307165    -0.27900
C378        C  0.42420117  0.83872564  0.27822665     0.18200
C379        C  0.52663499  0.97239426  0.24964530     0.12100
C380        C  0.57802695  0.91206678  0.23509675    -0.12200
H381        H  0.51904828  0.81299657  0.25402822     0.12400
C382        C  0.37035946  0.81587793  0.29258243    -0.23100
H383        H  0.43146453  0.91425120  0.27401918     0.08100
C384        C  0.52250862  0.99258490  0.21849352     0.04400
C385        C  0.55097830  0.04614373  0.21306121    -0.20300
C386        C  0.58362932  0.08012432  0.23803965    -0.12600
C387        C  0.58604756  0.05980794  0.26975973     0.13100
C388        C  0.55756131  0.00616648  0.27506887    -0.23000
C389        C  0.48835521  0.95754707  0.19097839    -0.06100
H390        H  0.54852520  0.06146571  0.18881280     0.14600
C391        C  0.61716266  0.09431683  0.29844490    -0.16300
H392        H  0.55976751  0.99026635  0.29914137     0.09000
H393        H  0.34262919  0.78295921  0.27684256     0.06800
H394        H  0.35681719  0.84437285  0.29319624     0.08000
H395        H  0.36964401  0.80311414  0.31888695     0.07100
H396        H  0.60564545  0.94363521  0.25174036     0.01900
H397        H  0.57794453  0.92830380  0.20999986     0.02400
H398        H  0.59185934  0.88406933  0.23191071     0.05900
H399        H  0.48961246  0.97959208  0.16814952     0.04900
H400        H  0.44772709  0.93582477  0.19993568    -0.00900
H401        H  0.50112203  0.92980389  0.18379964     0.00600
H402        H  0.60518996  0.12342835  0.30329635     0.04300
H403        H  0.61130642  0.07207371  0.32200857     0.06200
H404        H  0.65899480  0.11407874  0.29242315     0.07100
C405        C  0.83866131  0.30112769  0.22062982    -0.22500
C406        C  0.85477375  0.30267038  0.25379362     0.09400
C407        C  0.81815806  0.27538233  0.27918524     0.09800
C408        C  0.76564245  0.24635727  0.27060479    -0.17500
C409        C  0.74941490  0.24420731  0.23723030    -0.27900
C410        C  0.78657289  0.27133414  0.21176347     0.18200
C411        C  0.91075297  0.32933473  0.26046848     0.12100
C412        C  0.83464408  0.27678458  0.31514071    -0.12200
H413        H  0.73715393  0.22558956  0.28996767     0.12400
C414        C  0.77373662  0.26773101  0.17476840    -0.23100
H415        H  0.86732764  0.32149098  0.20125668     0.08100
C416        C  0.93887033  0.30355183  0.25612996     0.04400
C417        C  0.99210145  0.33016179  0.26201960    -0.20300
C418        C  0.01844468  0.38222019  0.27212825    -0.12600
C419        C  0.98979514  0.40845861  0.27559046     0.13100
C420        C  0.93626092  0.38136534  0.26967557    -0.23000
C421        C  0.91251887  0.24774070  0.24540894    -0.06100
H422        H  0.01287936  0.30933856  0.25928037     0.14600
C423        C  0.01445081  0.46479555  0.28498194    -0.16300
H424        H  0.91393382  0.40078061  0.27230097     0.09000
H425        H  0.79858359  0.25641955  0.16057946     0.06800
H426        H  0.78138189  0.30594219  0.16548049     0.08000
H427        H  0.73334639  0.23844207  0.16879948     0.07100
H428        H  0.85457704  0.31720588  0.32441990     0.01900
H429        H  0.86148454  0.26130498  0.31684015     0.02400
H430        H  0.80108332  0.25331082  0.33183595     0.05900
H431        H  0.94023959  0.23333741  0.24331050     0.04900
H432        H  0.89403784  0.24328713  0.22047661    -0.00900
H433        H  0.88250557  0.22342218  0.26409382     0.00600
H434        H  0.98639905  0.47890637  0.28380409     0.04300
H435        H  0.04642297  0.48859224  0.26729809     0.06200
H436        H  0.02908948  0.47080157  0.31118686     0.07100
C437        C  0.31802651  0.99456771  0.24300540    -0.22500
C438        C  0.26587475  0.97056442  0.25213239     0.09400
C439        C  0.24109433  0.99990256  0.25489841     0.09800
C440        C  0.26888555  0.05283424  0.24771405    -0.17500
C441        C  0.32121674  0.07754124  0.23780821    -0.27900
C442        C  0.34626729  0.04766580  0.23580416     0.18200
C443        C  0.23809474  0.91469106  0.25955795     0.12100
C444        C  0.18517804  0.97522172  0.26532212    -0.12200
H445        H  0.24904514  0.07470566  0.24941862     0.12400
C446        C  0.40264248  0.07066777  0.22676794    -0.23100
H447        H  0.33659633  0.97143535  0.24144400     0.08100
C448        C  0.21232730  0.87761028  0.23418167     0.04400
C449        C  0.18485239  0.82510764  0.24284546    -0.20300
C450        C  0.18297044  0.80907727  0.27624022    -0.12600
C451        C  0.20844180  0.84657618  0.30174170     0.13100
C452        C  0.23627996  0.89887694  0.29287436    -0.23000
C453        C  0.21393178  0.89354508  0.19806850    -0.06100
H454        H  0.16520196  0.79635992  0.22342669     0.14600
C455        C  0.20540076  0.83362687  0.33866740    -0.16300
H456        H  0.25567492  0.92777804  0.31226499     0.09000
H457        H  0.40924345  0.08424863  0.20030127     0.06800
H458        H  0.41578806  0.04197165  0.22897256     0.08000
H459        H  0.42680403  0.10312417  0.24399513     0.07100
H460        H  0.18010536  0.95802829  0.29076474     0.01900
H461        H  0.16058043  0.94445259  0.24717784     0.02400
H462        H  0.17160765  0.00366974  0.26615360     0.05900
H463        H  0.19175393  0.85966062  0.18140733     0.04900
H464        H  0.25459389  0.91464074  0.18913362    -0.00900
H465        H  0.19701954  0.91908838  0.19585722     0.00600
H466        H  0.24449906  0.84424632  0.34805325     0.04300
H467        H  0.17859846  0.79247289  0.34441271     0.06200
H468        H  0.19120283  0.85607350  0.35287448     0.07100
C469        C  0.28550110  0.29877892  0.22153588    -0.22500
C470        C  0.26663510  0.29504815  0.25422015     0.09400
C471        C  0.27281241  0.26345571  0.27793666     0.09800
C472        C  0.29878828  0.23703998  0.26849761    -0.17500
C473        C  0.31786129  0.24067279  0.23565518    -0.27900
C474        C  0.30971346  0.27099350  0.21162263     0.18200
C475        C  0.23761370  0.32205170  0.26220051     0.12100
C476        C  0.25187070  0.25763388  0.31310571    -0.12200
H477        H  0.30420140  0.21335415  0.28687790     0.12400
C478        C  0.32201440  0.27222060  0.17478509    -0.23100
H479        H  0.27926461  0.32195622  0.20314963     0.08100
C480        C  0.26291235  0.37451914  0.27141001     0.04400
C481        C  0.23358565  0.39864003  0.27753729    -0.20300
C482        C  0.17923040  0.37171975  0.27447473    -0.12600
C483        C  0.15413493  0.31860879  0.26510386     0.13100
C484        C  0.18378664  0.29480996  0.25916600    -0.23000
C485        C  0.32088759  0.40489845  0.27487218    -0.06100
H486        H  0.25354129  0.43904611  0.28458615     0.14600
C487        C  0.09632293  0.28584269  0.26158613    -0.16300
H488        H  0.16490125  0.25449602  0.25186391     0.09000
H489        H  0.35311973  0.31149936  0.16765762     0.06800
H490        H  0.28675369  0.26263570  0.16010047     0.08000
H491        H  0.33344321  0.24370829  0.16735055     0.07100
H492        H  0.20927328  0.24087191  0.31222364     0.01900
H493        H  0.26961339  0.29595879  0.32552794     0.02400
H494        H  0.26029220  0.23180983  0.32861412     0.05900
H495        H  0.33470318  0.44544366  0.28253440     0.04900
H496        H  0.33927704  0.40552437  0.25047312    -0.00900
H497        H  0.33349351  0.38672288  0.29421462     0.00600
H498        H  0.08300662  0.30035588  0.24037815     0.04300
H499        H  0.07715999  0.28631839  0.28540678     0.06200
H500        H  0.08402064  0.24491206  0.25595423     0.07100
C501        C  0.34557446  0.21212926  0.72786363     0.80100
N502        N  0.38880813  0.23373973  0.70841777    -0.78200
C503        C  0.41177348  0.20605497  0.69960726     0.82600
N504        N  0.39116924  0.15653556  0.71021441    -0.78100
C505        C  0.34840667  0.13443623  0.72999647     0.82700
N506        N  0.32585642  0.16269353  0.73867971    -0.79800
C507        C  0.07489334  0.40661492  0.77983534     0.80100
N508        N  0.09831089  0.44934290  0.79928367    -0.78200
C509        C  0.14749564  0.46823059  0.80990990     0.82600
N510        N  0.17360633  0.44338041  0.80153102    -0.78100
C511        C  0.15097490  0.40025062  0.78195775     0.82700
N512        N  0.10163191  0.38239741  0.77127234    -0.79800
C513        C  0.69406195  0.21531975  0.72979295     0.80100
N514        N  0.66504038  0.16518106  0.73955837    -0.78200
C515        C  0.61467279  0.13671124  0.72999729     0.82600
N516        N  0.59423814  0.15872121  0.70988070    -0.78100
C517        C  0.62288485  0.20904204  0.70058772     0.82700
N518        N  0.67257095  0.23718572  0.71073544    -0.79800
C519        C  0.69387426  0.47841380  0.73135806     0.80100
N520        N  0.67218673  0.43769996  0.70986773    -0.78200
C521        C  0.62216484  0.41730002  0.69994303     0.82600
N522        N  0.59403828  0.43857542  0.71101481    -0.78100
C523        C  0.61503113  0.47958547  0.73225380     0.82700
N524        N  0.66509649  0.49934707  0.74210799    -0.79800
C525        C  0.43322098  0.67853526  0.78660085     0.80100
N526        N  0.45195878  0.72808486  0.77602825    -0.78200
C527        C  0.42660077  0.75418563  0.78350532     0.82600
N528        N  0.38241612  0.72960359  0.80185919    -0.78100
C529        C  0.36284423  0.67986381  0.81190299     0.82700
N530        N  0.38833833  0.65445222  0.80420410    -0.79800
C531        C  0.07726472  0.67386367  0.78255794     0.80100
N532        N  0.09989570  0.65283424  0.80153087    -0.78200
C533        C  0.15023575  0.68161090  0.81095327     0.82600
N534        N  0.17754617  0.73213477  0.80230455    -0.78100
C535        C  0.15486631  0.75404109  0.78436602     0.82700
N536        N  0.10488502  0.72474266  0.77428571    -0.79800
O537        O  0.21989982  0.68463514  0.84126652    -0.81900
C538        C  0.17042458  0.50937522  0.92371197     0.97500
O539        O  0.14075124  0.52094177  0.90860810    -0.71000
O540        O  0.14350405  0.60896982  0.91726818    -0.74600
Al541      Al  0.14965996  0.57410218  0.87905234     1.49000
C542        C  0.16812843  0.65654146  0.92386360     0.92700
O543        O  0.29467508  0.68359654  0.91793229    -0.80800
O544        O  0.29618035  0.60926001  0.84169722    -0.74400
Al545      Al  0.25447543  0.67843891  0.87959061     1.90100
O546        O  0.30632917  0.61772902  0.90971228    -0.73400
O547        O  0.21007988  0.52142270  0.84924733    -0.73300
O548        O  0.21816001  0.53245183  0.91736222    -0.78900
O549        O  0.14478270  0.53407127  0.84082624    -0.77100
O550        O  0.21947876  0.60872275  0.87938229    -1.13300
O551        O  0.14220397  0.61899403  0.84941276    -0.72500
C552        C  0.17231518  0.66033407  0.83458647     0.98200
C553        C  0.31754503  0.65894153  0.92470962     0.94600
Al554      Al  0.25425967  0.57362858  0.87950361     1.55600
O555        O  0.20968125  0.68633488  0.90909315    -0.77100
C556        C  0.16907683  0.51079821  0.83410494     0.98800
C557        C  0.31912732  0.65689086  0.83528315     0.93700
O558        O  0.30721042  0.68645763  0.85014228    -0.82400
C559        C  0.61589603  0.13137619  0.53444703     0.80100
N560        N  0.66570028  0.16065985  0.52391510    -0.78200
C561        C  0.69388769  0.21135648  0.53268123     0.82600
N562        N  0.67145482  0.23237936  0.55182667    -0.78100
C563        C  0.62147516  0.20363210  0.56190824     0.82700
N564        N  0.59383859  0.15315578  0.55317717    -0.79800
C565        C  0.42302829  0.75035433  0.97994643     0.80100
N566        N  0.44559834  0.72194719  0.98824661    -0.78200
C567        C  0.42565580  0.67252351  0.97730851     0.82600
N568        N  0.38319162  0.65183468  0.95723350    -0.78100
C569        C  0.36009038  0.67960424  0.94897128     0.82700
N570        N  0.38039415  0.72875672  0.96011920    -0.79800
C571        C  0.69318632  0.47644214  0.52524445     0.80100
N572        N  0.67313167  0.43581678  0.54685384    -0.78200
C573        C  0.62413691  0.41573845  0.55857524     0.82600
N574        N  0.59524966  0.43706014  0.54903463    -0.78100
C575        C  0.61418925  0.47741573  0.52726450     0.82700
N576        N  0.66341697  0.49699404  0.51572956    -0.79800
C577        C  0.07464003  0.67613614  0.97285158     0.80100
N578        N  0.10474013  0.72568872  0.98352755    -0.78200
C579        C  0.15601100  0.75248992  0.97570859     0.82600
N580        N  0.17666978  0.72887495  0.95738997    -0.78100
C581        C  0.14702541  0.67906408  0.94728439     0.82700
N582        N  0.09608414  0.65292347  0.95501986    -0.79800
C583        C  0.34257891  0.13299871  0.53541289     0.80100
N584        N  0.38686276  0.15547528  0.55394876    -0.78200
C585        C  0.41101665  0.20675318  0.56144587     0.82600
N586        N  0.39030952  0.23551349  0.55093531    -0.78100
C587        C  0.34578573  0.21351662  0.53306063     0.82700
N588        N  0.32247663  0.16264211  0.52506874    -0.79800
C589        C  0.07507457  0.39806191  0.97426150     0.80100
N590        N  0.09674330  0.44133723  0.95478769    -0.78200
C591        C  0.14815654  0.46621030  0.94755508     0.82600
N592        N  0.17780108  0.44723192  0.95932678    -0.78100
C593        C  0.15733693  0.40430661  0.97872708     0.82700
N594        N  0.10591743  0.38014597  0.98609414    -0.79800
O595        O  0.62829128  0.35146380  0.59104098    -0.81900
C596        C  0.45428036  0.22699303  0.67514673     0.97500
O597        O  0.46479636  0.26761809  0.65947570    -0.71000
O598        O  0.55292478  0.35292263  0.66796512    -0.74600
Al599      Al  0.51808176  0.31225517  0.62959282     1.49000
C600        C  0.60053125  0.37603571  0.67465136     0.92700
O601        O  0.62744606  0.27791728  0.66883831    -0.80800
O602        O  0.55222101  0.20137259  0.59219016    -0.74400
Al603      Al  0.62251752  0.31197149  0.62995734     1.90100
O604        O  0.56247517  0.20003146  0.66010572    -0.73400
O605        O  0.46472831  0.19914572  0.60098404    -0.73300
O606        O  0.47782419  0.20286597  0.66884890    -0.78900
O607        O  0.47781929  0.27684978  0.59124228    -0.77100
O608        O  0.55276581  0.27730150  0.62997303    -1.13300
O609        O  0.56342040  0.36474560  0.59959594    -0.72500
C610        C  0.60411725  0.37476881  0.58410434     0.98200
C611        C  0.60290498  0.23045299  0.67567471     0.94600
Al612      Al  0.51772541  0.20761572  0.63046395     1.55600
O613        O  0.63075089  0.36553719  0.65910967    -0.77100
C614        C  0.45416506  0.22905203  0.58525318     0.98800
C615        C  0.59989632  0.22515519  0.58579529     0.93700
O616        O  0.63025561  0.26618966  0.60092809    -0.82400
C617        C  0.26937242  0.37847754  0.49219740    -0.22500
C618        C  0.24226758  0.32720956  0.50302284     0.09400
C619        C  0.18914036  0.30349852  0.00974491     0.09800
C620        C  0.16322355  0.33040907  0.00242478    -0.17500
C621        C  0.18910445  0.38058010  0.98871883    -0.27900
C622        C  0.24366212  0.40590496  0.48509470     0.18200
C623        C  0.27094649  0.29992025  0.50969174     0.12100
C624        C  0.15951146  0.24966706  0.02407343    -0.12200
H625        H  0.12207355  0.31121570  0.00689344     0.12400
C626        C  0.27612733  0.46143592  0.47406434    -0.23100
H627        H  0.31095130  0.39692687  0.48906989     0.08100
C628        C  0.27914728  0.27153615  0.98434661     0.04400
C629        C  0.30470769  0.24460824  0.49248139    -0.20300
C630        C  0.32002777  0.24333858  0.52564885    -0.12600
C631        C  0.30984792  0.27008130  0.55120253     0.13100
C632        C  0.28645116  0.29897201  0.54267278    -0.23000
C633        C  0.26125249  0.27079706  0.94884684    -0.06100
H634        H  0.31064972  0.22215613  0.97315177     0.14600
C635        C  0.31954247  0.26651377  0.58802511    -0.16300
H636        H  0.27825864  0.31922846  0.56214570     0.09000
H637        H  0.26732615  0.46587749  0.44757963     0.06800
H638        H  0.31815864  0.47486420  0.47522451     0.08000
H639        H  0.26889665  0.48686149  0.49081599     0.07100
H640        H  0.17550731  0.24850264  0.04904971     0.01900
H641        H  0.16265905  0.22208823  0.00692493     0.02400
H642        H  0.11785747  0.23679693  0.02739415     0.05900
H643        H  0.27048390  0.24676514  0.93211407     0.04900
H644        H  0.28054236  0.31067591  0.93860857    -0.00900
H645        H  0.21873446  0.25469642  0.94852787     0.00600
H646        H  0.34868317  0.30518848  0.59755337     0.04300
H647        H  0.33265769  0.23872380  0.59382806     0.06200
H648        H  0.28275704  0.25307187  0.60188753     0.07100
C649        C  0.25413799  0.89737972  0.97582547    -0.22500
C650        C  0.24281444  0.91270148  0.50649356     0.09400
C651        C  0.20588239  0.87468162  0.52809024     0.09800
C652        C  0.17875694  0.82289843  0.51751048    -0.17500
C653        C  0.18832187  0.80753844  0.98609781    -0.27900
C654        C  0.22764747  0.84554940  0.96527651     0.18200
C655        C  0.26873250  0.96860286  0.51495046     0.12100
C656        C  0.19530773  0.88871842  0.56239479    -0.12200
H657        H  0.15006880  0.79392456  0.53400234     0.12400
C658        C  0.24060854  0.83267906  0.93127413    -0.23100
H659        H  0.28312498  0.92673134  0.95964814     0.08100
C660        C  0.32113728  0.99690053  0.52452731     0.04400
C661        C  0.34390828  0.05016133  0.53089932    -0.20300
C662        C  0.31560615  0.07621221  0.52802118    -0.12600
C663        C  0.26236067  0.04694348  0.51902329     0.13100
C664        C  0.24009843  0.99386319  0.51242059    -0.23000
C665        C  0.35280393  0.97073235  0.52846216    -0.06100
H666        H  0.38430467  0.07153756  0.53799267     0.14600
C667        C  0.22770666  0.07015370  0.51693691    -0.16300
H668        H  0.19981746  0.97164234  0.50509848     0.09000
H669        H  0.25730102  0.80705338  0.93420208     0.06800
H670        H  0.26961292  0.86777756  0.91768732     0.08000
H671        H  0.20525902  0.81347553  0.91549502     0.07100
H672        H  0.18024215  0.91578904  0.55999193     0.01900
H673        H  0.23160147  0.90736163  0.57729796     0.02400
H674        H  0.16626405  0.85420140  0.57643013     0.05900
H675        H  0.39286406  0.99816453  0.53681976     0.04900
H676        H  0.35508830  0.95270210  0.00654251    -0.00900
H677        H  0.33456123  0.93949749  0.54751152     0.00600
H678        H  0.24050955  0.09878395  0.49620426     0.04300
H679        H  0.22814174  0.08864767  0.54124324     0.06200
H680        H  0.18692575  0.04053595  0.51164706     0.07100
C681        C  0.83237960  0.50668693  0.00864887    -0.22500
C682        C  0.85586504  0.55915972  0.50071953     0.09400
C683        C  0.82612672  0.58367798  0.49940919     0.09800
C684        C  0.77319289  0.55524467  0.50671496    -0.17500
C685        C  0.74885095  0.50253234  0.51535425    -0.27900
C686        C  0.77879024  0.47751145  0.51537200     0.18200
C687        C  0.91215619  0.58839443  0.49416662     0.12100
C688        C  0.85044562  0.64008585  0.49052090    -0.12200
H689        H  0.75106327  0.57493020  0.50640051     0.12400
C690        C  0.75614150  0.42083917  0.02312782    -0.23100
H691        H  0.85577889  0.48829015  0.00901131     0.08100
C692        C  0.94807726  0.61376064  0.52027432     0.04400
C693        C  0.00090069  0.64344218  0.51250131    -0.20300
C694        C  0.01849478  0.64799153  0.97927117    -0.12600
C695        C  0.98201121  0.62301082  0.95313193     0.13100
C696        C  0.92946442  0.59299677  0.96122825    -0.23000
C697        C  0.93056213  0.60925761  0.55626007    -0.06100
H698        H  0.02878387  0.66234291  0.53252243     0.14600
C699        C  0.99643867  0.62878734  0.91634836    -0.16300
H700        H  0.90137375  0.57391417  0.94132997     0.09000
H701        H  0.74245896  0.41184685  0.54882149     0.06800
H702        H  0.78469453  0.40778920  0.01928635     0.08000
H703        H  0.72311169  0.39811021  0.00593222     0.07100
H704        H  0.86768396  0.64683203  0.46498181     0.01900
H705        H  0.88118843  0.66372921  0.50895280     0.02400
H706        H  0.82171134  0.65333522  0.49064833     0.05900
H707        H  0.96361992  0.63143260  0.57356388     0.04900
H708        H  0.91056106  0.56813605  0.56412955    -0.00900
H709        H  0.90353153  0.62439733  0.55879469     0.00600
H710        H  0.98761142  0.59079337  0.90594469     0.04300
H711        H  0.03762631  0.65707366  0.91153368     0.06200
H712        H  0.97344521  0.64263040  0.90240508     0.07100
C713        C  0.50379165  0.50694835  0.51421248    -0.22500
C714        C  0.53129793  0.55781858  0.50241790     0.09400
C715        C  0.58501112  0.58088318  0.99785402     0.09800
C716        C  0.61046397  0.55339505  0.00559837    -0.17500
C717        C  0.58362221  0.50310727  0.51829470    -0.27900
C718        C  0.52898779  0.47920129  0.52237064     0.18200
C719        C  0.50290203  0.58536431  0.99571161     0.12100
C720        C  0.61575623  0.63564338  0.98527433    -0.12200
H721        H  0.65199142  0.57249468  0.00234167     0.12400
C722        C  0.49628714  0.42454807  0.53491727    -0.23100
H723        H  0.46230750  0.48911457  0.51742193     0.08100
C724        C  0.48030976  0.58326506  0.96418802     0.04400
C725        C  0.45501717  0.61168598  0.95909684    -0.20300
C726        C  0.45219651  0.64269821  0.98469000    -0.12600
C727        C  0.47441710  0.64480162  0.51631069     0.13100
C728        C  0.49921610  0.61590329  0.52151309    -0.23000
C729        C  0.48325758  0.55131811  0.93591721    -0.06100
H730        H  0.43809451  0.61036099  0.93470852     0.14600
C731        C  0.47041053  0.67509856  0.54528630    -0.16300
H732        H  0.51607926  0.61675253  0.54585067     0.09000
H733        H  0.50234195  0.39769558  0.51882900     0.06800
H734        H  0.45438858  0.41176766  0.53432808     0.08000
H735        H  0.50617579  0.42167117  0.56143616     0.07100
H736        H  0.61144267  0.66200253  0.00293260     0.01900
H737        H  0.60159782  0.63875140  0.96006427     0.02400
H738        H  0.65757212  0.64856767  0.98312652     0.05900
H739        H  0.46383860  0.55412009  0.91283753     0.04900
H740        H  0.46414772  0.51015224  0.94361237    -0.00900
H741        H  0.52431216  0.56486424  0.92965440     0.00600
H742        H  0.48631498  0.66858598  0.56885039     0.04300
H743        H  0.42923444  0.66313762  0.54986789     0.06200
H744        H  0.49268524  0.71703351  0.53971718     0.07100
C745        C  0.93613052  0.29530490  0.49779024    -0.22500
C746        C  0.90987614  0.32260636  0.49333441     0.09400
C747        C  0.93698699  0.37300360  0.98185946     0.09800
C748        C  0.99050946  0.39658843  0.97595591    -0.17500
C749        C  0.01796983  0.37010955  0.98129257    -0.27900
C750        C  0.98961157  0.31846048  0.49219603     0.18200
C751        C  0.85399788  0.29648275  0.50186388     0.12100
C752        C  0.90947688  0.40297375  0.97589586    -0.12200
H753        H  0.01101079  0.43632506  0.96744148     0.12400
C754        C  0.01421756  0.28566281  0.49764382    -0.23100
H755        H  0.91444162  0.25549870  0.50622208     0.08100
C756        C  0.81573608  0.25746164  0.98074802     0.04400
C757        C  0.76402395  0.23296740  0.49094068    -0.20300
C758        C  0.74915506  0.24260146  0.52247139    -0.12600
C759        C  0.78767858  0.28017576  0.54387769     0.13100
C760        C  0.83947503  0.30649999  0.53319628    -0.23000
C761        C  0.82977470  0.24518101  0.94696529    -0.06100
H762        H  0.73476856  0.20179044  0.97528957     0.14600
C763        C  0.77538506  0.29132444  0.57862008    -0.16300
H764        H  0.86918953  0.33448572  0.54966975     0.09000
H765        H  0.03445200  0.28481832  0.47443354     0.06800
H766        H  0.98522825  0.24507500  0.50392598     0.08000
H767        H  0.04140785  0.30111786  0.51914410     0.07100
H768        H  0.89190580  0.40627659  0.99969059     0.01900
H769        H  0.87857475  0.38279937  0.95685688     0.02400
H770        H  0.93625789  0.44261295  0.96657195     0.05900
H771        H  0.79522571  0.21527003  0.93339071     0.04900
H772        H  0.85710268  0.23053834  0.95021303    -0.00900
H773        H  0.84822838  0.28057548  0.93120762     0.00600
H774        H  0.81086427  0.31880246  0.59253197     0.04300
H775        H  0.75555561  0.25506159  0.59349047     0.06200
H776        H  0.75053997  0.30907313  0.57691376     0.07100
C777        C  0.44907126  0.88739335  0.99787908    -0.22500
C778        C  0.50308700  0.91404696  0.50294591     0.09400
C779        C  0.52955300  0.88612398  0.50287230     0.09800
C780        C  0.50239088  0.83321229  0.49557915    -0.17500
C781        C  0.44812484  0.80596650  0.98951429    -0.27900
C782        C  0.42153725  0.83443172  0.99017552     0.18200
C783        C  0.53037329  0.96995116  0.51040085     0.12100
C784        C  0.58658674  0.91229594  0.51043015    -0.12200
H785        H  0.52336878  0.81234963  0.49505512     0.12400
C786        C  0.36429349  0.80992868  0.98345018    -0.23100
H787        H  0.42931230  0.90949651  0.99830391     0.08100
C788        C  0.55225352  0.00561232  0.98617341     0.04400
C789        C  0.58083983  0.05818013  0.99457182    -0.20300
C790        C  0.58669521  0.07559466  0.52707479    -0.12600
C791        C  0.56283592  0.03797120  0.55275718     0.13100
C792        C  0.53450223  0.98565388  0.54393578    -0.23000
C793        C  0.54622245  0.98949289  0.94982158    -0.06100
H794        H  0.59823635  0.08683991  0.97480506     0.14600
C795        C  0.56816072  0.05085377  0.58976931    -0.16300
H796        H  0.51663558  0.95667887  0.56348130     0.09000
H797        H  0.35577230  0.79732602  0.95684055     0.06800
H798        H  0.35004645  0.83740710  0.98774960     0.08000
H799        H  0.34246732  0.77650351  0.00052164     0.07100
H800        H  0.59404320  0.92919037  0.53606703     0.01900
H801        H  0.60843635  0.94349999  0.49186557     0.02400
H802        H  0.60139130  0.88485286  0.50928889     0.05900
H803        H  0.56630358  0.02328703  0.93277348     0.04900
H804        H  0.50458386  0.96833530  0.94304645     0.01700
H805        H  0.56274907  0.96393939  0.94566499     0.00600
H806        H  0.52960502  0.03974061  0.60044834     0.04300
H807        H  0.59486920  0.09213119  0.59522000     0.06200
H808        H  0.58370163  0.02878023  0.60299247     0.07100
C809        C  0.49610864  0.59592535  0.79733989    -0.22500
C810        C  0.51033358  0.59351019  0.76415673     0.09400
C811        C  0.50073884  0.62033812  0.73857780     0.09800
C812        C  0.47688008  0.64915478  0.74682671    -0.17500
C813        C  0.46202278  0.65121308  0.78001552    -0.27900
C814        C  0.47267706  0.62497914  0.80577764     0.18200
C815        C  0.53694225  0.56405669  0.75701660     0.12100
C816        C  0.51528224  0.61810100  0.70260441    -0.12200
H817        H  0.46868166  0.66915830  0.72719070     0.12400
C818        C  0.46197665  0.62815299  0.84255433    -0.23100
H819        H  0.50436128  0.57583712  0.81690745     0.08100
C820        C  0.59102626  0.58737723  0.75956938     0.04400
C821        C  0.61488518  0.55845322  0.75196389    -0.20300
C822        C  0.58604466  0.50645113  0.74174585    -0.12600
C823        C  0.53119210  0.48277869  0.74008061     0.13100
C824        C  0.50756869  0.51208679  0.74779556    -0.23000
C825        C  0.62358393  0.64299749  0.77010858    -0.06100
H826        H  0.65663580  0.57722392  0.75342783     0.14600
C827        C  0.49673724  0.42676744  0.73083578    -0.16300
H828        H  0.46588328  0.49456222  0.74638425     0.09000
H829        H  0.49804403  0.64114816  0.85722606     0.06800
H830        H  0.43236120  0.58940666  0.85174299     0.08000
H831        H  0.44867457  0.65595654  0.84788135     0.07100
H832        H  0.49460110  0.57747701  0.69370655     0.01900
H833        H  0.55758191  0.63352667  0.70067782     0.02400
H834        H  0.50497869  0.64118698  0.68572866     0.05900
H835        H  0.66537696  0.65537329  0.77075583     0.04900
H836        H  0.61195947  0.64832164  0.79564874    -0.00900
H837        H  0.61816609  0.66832081  0.75214232     0.00600
H838        H  0.45511933  0.41452479  0.73349544     0.04300
H839        H  0.50473374  0.40189701  0.74761709     0.06200
H840        H  0.50301731  0.42030322  0.70419695     0.07100
C841        C  0.83049400  0.50357984  0.75058863    -0.22500
C842        C  0.85740940  0.55741466  0.75438148     0.09400
C843        C  0.83029198  0.58465622  0.75175241     0.09800
C844        C  0.77710788  0.55762445  0.74472984    -0.17500
C845        C  0.74992006  0.50374488  0.74013420    -0.27900
C846        C  0.77707979  0.47625985  0.74366501     0.18200
C847        C  0.91392013  0.58473501  0.76140433     0.12100
C848        C  0.85736500  0.64229370  0.75676814    -0.12200
H849        H  0.75683128  0.57904276  0.74226468     0.12400
C850        C  0.75014298  0.41819568  0.74132800    -0.23100
H851        H  0.85151926  0.48288963  0.75303118     0.08100
C852        C  0.93331964  0.58352551  0.79355876     0.04400
C853        C  0.98684159  0.61204376  0.79939598    -0.20300
C854        C  0.02148946  0.64275739  0.77409119    -0.12600
C855        C  0.00205125  0.64338629  0.74172306     0.13100
C856        C  0.94854211  0.61399905  0.73576022    -0.23000
C857        C  0.89744065  0.55342595  0.82197510    -0.06100
H858        H  0.00163481  0.61154700  0.82425126     0.14600
C859        C  0.03748857  0.67389576  0.71319911    -0.16300
H860        H  0.93338242  0.61442592  0.71102879     0.09000
H861        H  0.71743446  0.40072437  0.75942488     0.06800
H862        H  0.77663413  0.40330734  0.74742102     0.08000
H863        H  0.73568771  0.40538749  0.71542927     0.07100
H864        H  0.88780793  0.66193009  0.73738226     0.01900
H865        H  0.87532899  0.65218765  0.78211229     0.02400
H866        H  0.83019400  0.65737179  0.75476748     0.05900
H867        H  0.91887392  0.55775131  0.84570391     0.04900
H868        H  0.87558715  0.51177413  0.81552960    -0.00900
H869        H  0.86984300  0.56744945  0.82653331     0.00600
H870        H  0.01598967  0.66740119  0.68923399     0.04300
H871        H  0.06700967  0.66214276  0.70940070     0.06200
H872        H  0.05689806  0.71580149  0.71880169     0.07100
C873        C  0.45105385  0.89292359  0.77240157    -0.22500
C874        C  0.49907521  0.91649295  0.75626130     0.09400
C875        C  0.52207288  0.88678835  0.74785432     0.09800
C876        C  0.49692489  0.83415455  0.75637912    -0.17500
C877        C  0.44911316  0.80994476  0.77351850    -0.27900
C878        C  0.42556125  0.84023865  0.78117656     0.18200
C879        C  0.52597986  0.97297655  0.74986166     0.12100
C880        C  0.57369830  0.91094941  0.73029673    -0.12200
H881        H  0.51553134  0.81215415  0.74997625     0.12400
C882        C  0.37400533  0.81859387  0.79873140    -0.23100
H883        H  0.43381697  0.91631155  0.77862030     0.08100
C884        C  0.52001119  0.99350645  0.71937311     0.04400
C885        C  0.54893175  0.04703401  0.71387146    -0.20300
C886        C  0.58363424  0.08072809  0.73820887    -0.12600
C887        C  0.58763590  0.06007890  0.76943544     0.13100
C888        C  0.55887071  0.00644306  0.77473432    -0.23000
C889        C  0.48321360  0.95890026  0.69269229    -0.06100
H890        H  0.54507098  0.06252205  0.69005903     0.14600
C891        C  0.62072195  0.09417095  0.79769124    -0.16300
H892        H  0.56237628  0.99029559  0.79836381     0.09000
H893        H  0.34359358  0.78623103  0.78388109     0.06800
H894        H  0.36179981  0.84792333  0.80158954     0.08000
H895        H  0.37641003  0.80538619  0.82441359     0.07100
H896        H  0.60344096  0.94243096  0.74604058     0.01900
H897        H  0.57117004  0.92714401  0.70571338     0.02400
H898        H  0.58646223  0.88242956  0.72555254     0.05900
H899        H  0.48313092  0.98120231  0.67035693     0.04900
H900        H  0.44334915  0.93790980  0.70303257    -0.00900
H901        H  0.49445695  0.93050199  0.68428558     0.00600
H902        H  0.60978190  0.12381063  0.80344440     0.04300
H903        H  0.61574028  0.07172881  0.82103904     0.06200
H904        H  0.66216843  0.11323947  0.79069019     0.07100
C905        C  0.83896894  0.30179295  0.72075021    -0.22500
C906        C  0.85501736  0.30361846  0.75395998     0.09400
C907        C  0.81833395  0.27661056  0.77937675     0.09800
C908        C  0.76583542  0.24741811  0.77075026    -0.17500
C909        C  0.74968741  0.24490701  0.73731660    -0.27900
C910        C  0.78690104  0.27190111  0.71185483     0.18200
C911        C  0.91100385  0.33011432  0.76062051     0.12100
C912        C  0.83471181  0.27859426  0.81541965    -0.12200
H913        H  0.73730061  0.22683702  0.79012004     0.12400
C914        C  0.77414621  0.26806015  0.67483764    -0.23100
H915        H  0.86766975  0.32197498  0.70137123     0.08100
C916        C  0.93865003  0.30367651  0.75723213     0.04400
C917        C  0.99195894  0.33015563  0.76286037    -0.20300
C918        C  0.01880695  0.38272964  0.77173754    -0.12600
C919        C  0.99068716  0.40961648  0.77417196     0.13100
C920        C  0.93707117  0.38265693  0.76855122    -0.23000
C921        C  0.91175755  0.24735689  0.74767956    -0.06100
H922        H  0.01239980  0.30890834  0.76090812     0.14600
C923        C  0.01607815  0.46653245  0.78204897    -0.16300
H924        H  0.91515277  0.40258433  0.77037023     0.09000
H925        H  0.79906664  0.25672198  0.66076524     0.06800
H926        H  0.78174956  0.30619746  0.66542362     0.08000
H927        H  0.73378359  0.23869195  0.66886858     0.07100
H928        H  0.85458799  0.31916581  0.82441551     0.01900
H929        H  0.86157588  0.26318898  0.81746940     0.02400
H930        H  0.80110066  0.25537047  0.83213198     0.05900
H931        H  0.93917939  0.23252993  0.74612109     0.04900
H932        H  0.89301438  0.24186018  0.72274025    -0.00900
H933        H  0.88188117  0.22410244  0.76671686     0.00600
H934        H  0.98843810  0.48106522  0.78001907     0.04300
H935        H  0.04806393  0.48891556  0.76405197     0.06200
H936        H  0.03088871  0.47398776  0.80822762     0.07100
C937        C  0.31939305  0.99526473  0.74361972    -0.22500
C938        C  0.26763626  0.97156268  0.75365750     0.09400
C939        C  0.24331555  0.00120417  0.75731275     0.09800
C940        C  0.27106335  0.05409349  0.75001084    -0.17500
C941        C  0.32291828  0.07849199  0.73907889    -0.27900
C942        C  0.34760364  0.04833755  0.73628289     0.18200
C943        C  0.23966865  0.91561996  0.76089668     0.12100
C944        C  0.18787105  0.97686893  0.76874067    -0.12200
H945        H  0.25149890  0.07613492  0.75239520     0.12400
C946        C  0.40352933  0.07095210  0.72617191    -0.23100
H947        H  0.33763164  0.97191109  0.74138698     0.08100
C948        C  0.21284524  0.87884473  0.73554064     0.04400
C949        C  0.18493798  0.82630100  0.74406213    -0.20300
C950        C  0.18360715  0.80990444  0.77730123    -0.12600
C951        C  0.21012828  0.84711808  0.80280112     0.13100
C952        C  0.23843279  0.89945457  0.79405777    -0.23000
C953        C  0.21375556  0.89515114  0.69959233    -0.06100
H954        H  0.16454137  0.79779987  0.72463595     0.14600
C955        C  0.20774121  0.83387740  0.83963695    -0.16300
H956        H  0.25859424  0.92812979  0.81345094     0.09000
H957        H  0.40907067  0.08441472  0.69969439     0.06800
H958        H  0.41649271  0.04205942  0.72780155     0.08000
H959        H  0.42858704  0.10341698  0.74314742     0.07100
H960        H  0.18373271  0.95970173  0.79410946     0.01900
H961        H  0.16239843  0.94613274  0.75083975     0.02400
H962        H  0.17460357  0.00551770  0.77017462     0.05900
H963        H  0.19075825  0.86148311  0.68292405     0.04900
H964        H  0.25418734  0.91580600  0.69021082    -0.00900
H965        H  0.19736486  0.92120384  0.69796410     0.00600
H966        H  0.24685126  0.84365994  0.84852148     0.04300
H967        H  0.18040765  0.79285247  0.84538842     0.06200
H968        H  0.19458899  0.85682363  0.85428963     0.07100
C969        C  0.28484908  0.29785315  0.72117332    -0.22500
C970        C  0.26693453  0.29529669  0.75401023     0.09400
C971        C  0.27408848  0.26481690  0.77812180     0.09800
C972        C  0.30020815  0.23843739  0.76892709    -0.17500
C973        C  0.31843508  0.24100427  0.73595627    -0.27900
C974        C  0.30918025  0.27006237  0.71153773     0.18200
C975        C  0.23788326  0.32232819  0.76179550     0.12100
C976        C  0.25384977  0.25997141  0.81341454    -0.12200
H977        H  0.30639043  0.21561974  0.78758712     0.12400
C978        C  0.32044476  0.26987473  0.67463573    -0.23100
H979        H  0.27782495  0.32011956  0.70250178     0.08100
C980        C  0.26307336  0.37447195  0.77173839     0.04400
C981        C  0.23375211  0.39861215  0.77779798    -0.20300
C982        C  0.17950361  0.37203866  0.77397559    -0.12600
C983        C  0.15452456  0.31925949  0.76381349     0.13100
C984        C  0.18418547  0.29545273  0.75790999    -0.23000
C985        C  0.32094547  0.40454081  0.77593167    -0.06100
H986        H  0.25365644  0.43877727  0.78541698     0.14600
C987        C  0.09680598  0.28678766  0.75951792    -0.16300
H988        H  0.16539772  0.25537761  0.75005743     0.09000
H989        H  0.35088446  0.30902860  0.66672856     0.06800
H990        H  0.28459027  0.25906009  0.66029023     0.08000
H991        H  0.33232571  0.24154646  0.66760984     0.07100
H992        H  0.21120885  0.24297449  0.81283707     0.01900
H993        H  0.27162641  0.29864034  0.82535835     0.02400
H994        H  0.26278722  0.23476684  0.82919090     0.05900
H995        H  0.33469377  0.44490873  0.78399168     0.04900
H996        H  0.33998515  0.40570410  0.75170192    -0.00900
H997        H  0.33290609  0.38578171  0.79525449     0.00600
H998        H  0.08402973  0.30230690  0.73858435     0.04300
H999        H  0.07705671  0.28619128  0.78331128     0.06200
H1000       H  0.08458211  0.24611649  0.75309967     0.07100
loop_ 
_geom_bond_atom_site_label_1 
_geom_bond_atom_site_label_2 
_geom_bond_distance 
_geom_bond_site_symmetry_2 
_ccdc_geom_bond_type 
C1            N2   1.359       .  A
C1            N6   1.359       .  A
C1          C473   1.486       .  S
N2            C3   1.359       .  A
C3            N4   1.355       .  A
C3           C96   1.468       .  S
N4            C5   1.357       .  A
C5            N6   1.362       .  A
C5          C441   1.494       .  S
C7            N8   1.352       .  A
C7           N12   1.362       .  A
C7          C418   1.492       .  S
N8            C9   1.351       .  A
C9           N10   1.360       .  A
C9           C56   1.464       .  S
N10          C11   1.362       .  A
C11          N12   1.360       .  A
C11         C482   1.502       .  S
C13          N14   1.360       .  A
C13          N18   1.354       .  A
C13         C409   1.470       .  S
N14          C15   1.361       .  A
C15          N16   1.359       .  A
C15         C386   1.487       .  S
N16          C17   1.359       .  A
C17          N18   1.351       .  A
C17         C111   1.459       .  S
C19          N20   1.358       .  A
C19          N24   1.360       .  A
C19         C345   1.493       .  S
N20          C21   1.360       .  A
C21          N22   1.355       .  A
C21         C100   1.468       .  S
N22          C23   1.357       .  A
C23          N24   1.362       .  A
C23         C322   1.493       .  S
C25          N26   1.362       .  A
C25          N30   1.356       .  A
C25         C313   1.475       .  S
N26          C27   1.364       .  A
C27          N28   1.358       .  A
C27         C377   1.505       .  S
N28          C29   1.358       .  A
C29          N30   1.352       .  A
C29          C57   1.464       .  S
C31          N32   1.359       .  A
C31          N36   1.359       .  A
C31         C354   1.483       .  S
N32          C33   1.360       .  A
C33          N34   1.354       .  A
C33          C52   1.464       .  S
N34          C35   1.357       .  A
C35          N36   1.360       .  A
C35         C450   1.473       .  S
O37          C52   1.259       .  A
O37         Al45   1.902       .  S
C38          C91   1.465       .  S
C38          O48   1.260       .  A
C38          O39   1.254       .  A
O39         Al41   1.885       .  S
O40          C42   1.260       .  A
O40         Al41   1.903       .  S
Al41         O49   1.896       .  S
Al41         O51   1.881       .  S
Al41         O50   1.806       .  S
C42          C81   1.464       .  S
C42          O55   1.254       .  A
O43          C53   1.259       .  A
O43         Al45   1.899       .  S
O44          C57   1.260       .  A
O44         Al54   1.904       .  S
Al45         O58   1.880       .  S
Al45         O55   1.882       .  S
Al45         O50   1.806       .  S
O46          C53   1.255       .  A
O46         Al54   1.885       .  S
O47          C56   1.255       .  A
O47         Al54   1.889       .  S
O48         Al54   1.901       .  S
O49          C56   1.260       .  A
O50         Al54   1.808       .  S
O51          C52   1.254       .  A
C53          C69   1.464       .  S
C57          O58   1.254       .  A
C59          N60   1.361       .  A
C59          N64   1.357       .  A
C59         C290   1.474       .  S
N60          C61   1.362       .  A
C61          N62   1.358       .  A
C61         C258   1.491       .  S
N62          C63   1.358       .  A
C63          N64   1.355       .  A
C63         C115   1.465       .  S
C65          N66   1.363       .  A
C65          N70   1.356       .  A
C65         C281   1.492       .  S
N66          C67   1.360       .  A
C67          N68   1.358       .  A
C67         C226   1.488       .  S
N68          C69   1.359       .  A
C69          N70   1.354       .  A
C71          N72   1.358       .  A
C71          N76   1.363       .  A
C71         C185   1.493       .  S
N72          C73   1.356       .  A
C73          N74   1.358       .  A
C73         C110   1.468       .  S
N74          C75   1.357       .  A
C75          N76   1.361       .  A
C75         C217   1.501       .  S
C77          N78   1.362       .  A
C77          N82   1.356       .  A
C77         C194   1.475       .  S
N78          C79   1.363       .  A
C79          N80   1.359       .  A
C79         C153   1.491       .  S
N80          C81   1.359       .  A
C81          N82   1.353       .  A
C83          N84   1.362       .  A
C83          N88   1.359       .  A
C83         C162   1.501       .  S
N84          C85   1.362       .  A
C85          N86   1.352       .  A
C85         C114   1.464       .  S
N86          C87   1.354       .  A
C87          N88   1.357       .  A
C87         C130   1.469       .  S
C89          N90   1.362       .  A
C89          N94   1.360       .  A
C89         C249   1.502       .  S
N90          C91   1.360       .  A
C91          N92   1.352       .  A
N92          C93   1.353       .  A
C93          N94   1.362       .  A
C93         C121   1.494       .  S
O95         C110   1.259       .  A
O95        Al103   1.902       .  S
C96         O106   1.259       .  A
C96          O97   1.257       .  A
O97         Al99   1.897       .  S
O98         C100   1.260       .  A
O98         Al99   1.904       .  S
Al99        O107   1.903       .  S
Al99        O109   1.895       .  S
Al99        O108   1.802       .  S
C100        O113   1.256       .  A
O101        C111   1.259       .  A
O101       Al103   1.897       .  S
O102        C115   1.259       .  A
O102       Al112   1.898       .  S
Al103       O116   1.891       .  S
Al103       O113   1.891       .  S
Al103       O108   1.804       .  S
O104        C111   1.254       .  A
O104       Al112   1.879       .  S
O105        C114   1.254       .  A
O105       Al112   1.882       .  S
O106       Al112   1.897       .  S
O107        C114   1.261       .  A
O108       Al112   1.805       .  S
O109        C110   1.257       .  A
C115        O116   1.256       .  A
C117        C118   1.396   1_556  A
C117        C122   1.404       .  A
C117        H127   1.085       .  S
C118        C123   1.472       .  S
C118        C619   1.405       .  A
C119        C120   1.398       .  A
C119        C618   1.405       .  A
C119        C124   1.508       .  S
C120        C121   1.409       .  A
C120        H125   1.080       .  S
C121        C622   1.427       .  A
C122        C621   1.428       .  A
C122        C126   1.510       .  S
C123        C132   1.396       .  A
C123        C628   1.410   1_554  A
C124        H140   1.110       .  S
C124        H141   1.110       .  S
C124        H142   1.111       .  S
C126        H137   1.110       .  S
C126        H138   1.111       .  S
C126        H139   1.110       .  S
C128        C623   1.410       .  A
C128        C629   1.403       .  A
C128        C133   1.506       .  S
C129        C130   1.403   1_556  A
C129        C628   1.403       .  A
C129        H634   1.083       .  S
C130        C131   1.417       .  A
C131        C132   1.397       .  A
C131        C135   1.507       .  S
C132        H136   1.084       .  S
C133        H143   1.111       .  S
C133        H144   1.110       .  S
C133        H145   1.110       .  S
H134        C629   1.083       .  S
C135        H146   1.110       .  S
C135        H147   1.106       .  S
C135        H148   1.109       .  S
C149        C154   1.407       .  A
C149        C650   1.401       .  A
C149        H159   1.083       .  S
C150        C155   1.487       .  S
C150        C151   1.411       .  A
C150        C649   1.401   1_554  A
C151        C152   1.406       .  A
C151        C156   1.507       .  S
C152        C653   1.407   1_554  A
C152        H157   1.083       .  S
C153        C154   1.421       .  A
C153        C652   1.406       .  A
C154        C158   1.508       .  S
C155        C160   1.409       .  A
C155        C164   1.399       .  A
C156        H172   1.109       .  S
C156        H173   1.111       .  S
C156        H174   1.111       .  S
C158        H169   1.109       .  S
C158        H170   1.111       .  S
C158        H171   1.110       .  S
C160        C161   1.407   1_565  A
C160        C165   1.507       .  S
C161        C162   1.412       .  A
C161        H166   1.083       .  S
C162        C163   1.426       .  A
C163        C164   1.406   1_545  A
C163        C167   1.509       .  S
C164        H168   1.084       .  S
C165        H175   1.111       .  S
C165        H177   1.111       .  S
C165        H676   1.110       .  S
C167        H178   1.110   1_554  S
C167        H179   1.111       .  S
C167        H180   1.111       .  S
H176        C665   1.110       .  S
C181        C682   1.400       .  A
C181        C686   1.407       .  A
C181        H191   1.084       .  S
C182        C187   1.479   1_554  S
C182        C183   1.407   1_554  A
C182        C681   1.400       .  A
C183        C184   1.401   1_556  A
C183        C188   1.508       .  S
C184        C185   1.409       .  A
C184        H189   1.083       .  S
C185        C186   1.424       .  A
C186        C681   1.407       .  A
C186        C690   1.509       .  S
C187        C192   1.411   1_556  A
C187        C696   1.399       .  A
C188        H204   1.110       .  S
C188        H205   1.110   1_556  S
C188        H206   1.110       .  S
C190        C686   1.509       .  S
C190        H202   1.111       .  S
C190        H203   1.111       .  S
C190        H701   1.109       .  S
C192        C193   1.404   1_655  A
C192        C197   1.506       .  S
C193        C694   1.403   1_554  A
C193        H198   1.085       .  S
C194        C195   1.419   1_455  A
C194        C693   1.403       .  A
C195        C196   1.401       .  A
C195        C199   1.510       .  S
C196        C687   1.399       .  A
C196        H200   1.085       .  S
C197        H207   1.111       .  S
C197        H208   1.110       .  S
C197        H209   1.110       .  S
C199        H210   1.110       .  S
C199        H211   1.107   1_655  S
C199        H212   1.111       .  S
H201        C690   1.109       .  S
C213        C214   1.400       .  A
C213        C218   1.408       .  A
C213        H223   1.084       .  S
C214        C719   1.486   1_554  S
C214        C715   1.408   1_554  A
C215        C216   1.405       .  A
C215        C714   1.408       .  A
C215        C220   1.507       .  S
C216        C717   1.411       .  A
C216        H221   1.083       .  S
C217        C218   1.426       .  A
C217        C716   1.411       .  A
C218        C222   1.509       .  S
C219        C714   1.486       .  S
C219        C224   1.410       .  A
C219        C728   1.401       .  A
C220        H236   1.110       .  S
C220        H237   1.110       .  S
C220        H238   1.111       .  S
C222        H233   1.110       .  S
C222        H234   1.111       .  S
C222        H235   1.110       .  S
C224        C225   1.405       .  A
C224        C229   1.506       .  S
C225        C226   1.407       .  A
C225        H230   1.086       .  S
C226        C727   1.418       .  A
C227        C228   1.406       .  A
C227        C726   1.418   1_554  A
C227        C231   1.507       .  S
C228        C719   1.401   1_554  A
C228        H232   1.085       .  S
C229        H239   1.111       .  S
C229        H240   1.110       .  S
C229        H241   1.110       .  S
C231        H242   1.111       .  S
C231        H243   1.110       .  S
C231        H244   1.109       .  S
C245        C246   1.397       .  A
C245        C250   1.405       .  A
C245        H255   1.085   1_556  S
C246        C251   1.486   1_556  S
C246        C747   1.409       .  A
C247        C248   1.407       .  A
C247        C746   1.409       .  A
C247        C252   1.507       .  S
C248        C249   1.412   1_655  A
C248        H253   1.084   1_655  S
C249        C750   1.426   1_455  A
C250        C749   1.426   1_655  A
C250        C254   1.506   1_655  S
C251        C260   1.400       .  A
C251        C756   1.411   1_554  A
C252        H268   1.110       .  S
C252        H269   1.110       .  S
C252        H270   1.111       .  S
C254        H265   1.110       .  S
C254        H266   1.111   1_456  S
C254        H267   1.109   1_556  S
C256        C751   1.411       .  A
C256        C757   1.406       .  A
C256        C261   1.506       .  S
C257        C258   1.407   1_556  A
C257        C756   1.406       .  A
C257        H762   1.084       .  S
C258        C259   1.422       .  A
C259        C260   1.406       .  A
C259        C263   1.509       .  S
C260        H264   1.085       .  S
C261        H271   1.111       .  S
C261        H272   1.110       .  S
C261        H273   1.110       .  S
H262        C757   1.084       .  S
C263        H274   1.111       .  S
C263        H275   1.111       .  S
C263        H276   1.109       .  S
C277        C282   1.406       .  A
C277        C778   1.398       .  A
C277        H287   1.084       .  S
C278        C283   1.479       .  S
C278        C279   1.407       .  A
C278        C777   1.399   1_554  A
C279        C280   1.401   1_554  A
C279        C284   1.507       .  S
C280        C781   1.409       .  A
C280        H285   1.083       .  S
C281        C282   1.425       .  A
C281        C780   1.408       .  A
C282        C286   1.510       .  S
C283        C292   1.399       .  A
C283        C788   1.411   1_564  A
C284        H300   1.110       .  S
C284        H301   1.110   1_554  S
C284        H302   1.111       .  S
C286        H297   1.110       .  S
C286        H298   1.111       .  S
C286        H299   1.110       .  S
C288        C289   1.404       .  A
C288        C783   1.410   1_545  A
C288        C293   1.506   1_545  S
C289        C790   1.403       .  A
C289        H294   1.084       .  S
C290        C291   1.419       .  A
C290        C789   1.403   1_554  A
C291        C292   1.402   1_545  A
C291        C295   1.510       .  S
C292        H296   1.085       .  S
C293        H303   1.111   1_565  S
C293        H304   1.110       .  S
C293        H305   1.110       .  S
C295        H306   1.111       .  S
C295        H307   1.106       .  S
C295        H308   1.111       .  S
C309        C310   1.399       .  A
C309        C314   1.401       .  A
C309        H319   1.084       .  S
C310        C315   1.478       .  S
C310        C311   1.410       .  A
C311        C312   1.404       .  A
C311        C316   1.506       .  S
C312        C313   1.403       .  A
C312        H317   1.083       .  S
C313        C314   1.420       .  A
C314        C318   1.510       .  S
C315        C320   1.407       .  A
C315        C324   1.399       .  A
C316        H332   1.110       .  S
C316        H333   1.110       .  S
C316        H334   1.111       .  S
C318        H329   1.111       .  S
C318        H330   1.111       .  S
C318        H331   1.106       .  S
C320        C321   1.401       .  A
C320        C325   1.507       .  S
C321        C322   1.409       .  A
C321        H326   1.083       .  S
C322        C323   1.424       .  A
C323        C324   1.406       .  A
C323        C327   1.509       .  S
C324        H328   1.084       .  S
C325        H335   1.111       .  S
C325        H336   1.110       .  S
C325        H337   1.110       .  S
C327        H338   1.111       .  S
C327        H339   1.110       .  S
C327        H340   1.109       .  S
C341        C342   1.402       .  A
C341        C346   1.409       .  A
C341        H351   1.084       .  S
C342        C347   1.487       .  S
C342        C343   1.410       .  A
C343        C344   1.404       .  A
C343        C348   1.507       .  S
C344        C345   1.408       .  A
C344        H349   1.084       .  S
C345        C346   1.421       .  A
C346        C350   1.508       .  S
C347        C352   1.412       .  A
C347        C356   1.403       .  A
C348        H364   1.110       .  S
C348        H365   1.110       .  S
C348        H366   1.111       .  S
C350        H361   1.111       .  S
C350        H362   1.111       .  S
C350        H363   1.109       .  S
C352        C353   1.405       .  A
C352        C357   1.506       .  S
C353        C354   1.405   1_655  A
C353        H358   1.086   1_655  S
C354        C355   1.416       .  A
C355        C356   1.406   1_455  A
C355        C359   1.507       .  S
C356        H360   1.085       .  S
C357        H367   1.111       .  S
C357        H368   1.109       .  S
C357        H369   1.111       .  S
C359        H370   1.111       .  S
C359        H371   1.111       .  S
C359        H372   1.109       .  S
C373        C374   1.398       .  A
C373        C378   1.408       .  A
C373        H383   1.084       .  S
C374        C379   1.485       .  S
C374        C375   1.408       .  A
C375        C376   1.405       .  A
C375        C380   1.507       .  S
C376        C377   1.412       .  A
C376        H381   1.083       .  S
C377        C378   1.429       .  A
C378        C382   1.510       .  S
C379        C384   1.410       .  A
C379        C388   1.401   1_565  A
C380        H396   1.110       .  S
C380        H397   1.110       .  S
C380        H398   1.111       .  S
C382        H393   1.110       .  S
C382        H394   1.111       .  S
C382        H395   1.110       .  S
C384        C385   1.405   1_565  A
C384        C389   1.506       .  S
C385        C386   1.407       .  A
C385        H390   1.085       .  S
C386        C387   1.417       .  A
C387        C388   1.406       .  A
C387        C391   1.508       .  S
C388        H392   1.085   1_545  S
C389        H399   1.111       .  S
C389        H400   1.110       .  S
C389        H401   1.110       .  S
C391        H402   1.111       .  S
C391        H403   1.111       .  S
C391        H404   1.109       .  S
C405        C406   1.397       .  A
C405        C410   1.397       .  A
C405        H415   1.084       .  S
C406        C411   1.473       .  S
C406        C407   1.410       .  A
C407        C408   1.403       .  A
C407        C412   1.506       .  S
C408        C409   1.403       .  A
C408        H413   1.083       .  S
C409        C410   1.419       .  A
C410        C414   1.511       .  S
C411        C416   1.406       .  A
C411        C420   1.397       .  A
C412        H428   1.110       .  S
C412        H429   1.110       .  S
C412        H430   1.111       .  S
C414        H425   1.111       .  S
C414        H426   1.110       .  S
C414        H427   1.106       .  S
C416        C417   1.397       .  A
C416        C421   1.508       .  S
C417        C418   1.407   1_655  A
C417        H422   1.082   1_655  S
C418        C419   1.427   1_455  A
C419        C420   1.405       .  A
C419        C423   1.510   1_655  S
C420        H424   1.086       .  S
C421        H431   1.111       .  S
C421        H432   1.110       .  S
C421        H433   1.110       .  S
C423        H434   1.111   1_455  S
C423        H435   1.110       .  S
C423        H436   1.110       .  S
C437        C438   1.398       .  A
C437        C442   1.405   1_565  A
C437        H447   1.083       .  S
C438        C443   1.477       .  S
C438        C439   1.406       .  A
C439        C440   1.401   1_565  A
C439        C444   1.507       .  S
C440        C441   1.410       .  A
C440        H445   1.082       .  S
C441        C442   1.425       .  A
C442        C446   1.509       .  S
C443        C448   1.410       .  A
C443        C452   1.398       .  A
C444        H460   1.110       .  S
C444        H461   1.110       .  S
C444        H462   1.111   1_565  S
C446        H457   1.109       .  S
C446        H458   1.111       .  S
C446        H459   1.110       .  S
C448        C449   1.403       .  A
C448        C453   1.506       .  S
C449        C450   1.403       .  A
C449        H454   1.085       .  S
C450        C451   1.419       .  A
C451        C452   1.400       .  A
C451        C455   1.509       .  S
C452        H456   1.085       .  S
C453        H463   1.111       .  S
C453        H464   1.110       .  S
C453        H465   1.110       .  S
C455        H466   1.110       .  S
C455        H467   1.106       .  S
C455        H468   1.111       .  S
C469        C470   1.398       .  A
C469        C474   1.403       .  A
C469        H479   1.085       .  S
C470        C475   1.484       .  S
C470        C471   1.411       .  A
C471        C472   1.407       .  A
C471        C476   1.506       .  S
C472        C473   1.407       .  A
C472        H477   1.084       .  S
C473        C474   1.419       .  A
C474        C478   1.506       .  S
C475        C480   1.408       .  A
C475        C484   1.398       .  A
C476        H492   1.111       .  S
C476        H493   1.110       .  S
C476        H494   1.111       .  S
C478        H489   1.110       .  S
C478        H490   1.109       .  S
C478        H491   1.105       .  S
C480        C481   1.406       .  A
C480        C485   1.507       .  S
C481        C482   1.411       .  A
C481        H486   1.084       .  S
C482        C483   1.426       .  A
C483        C484   1.406       .  A
C483        C487   1.506       .  S
C484        H488   1.085       .  S
C485        H495   1.111       .  S
C485        H496   1.110       .  S
C485        H497   1.110       .  S
C487        H498   1.109       .  S
C487        H499   1.110       .  S
C487        H500   1.111       .  S
C501        N502   1.359       .  A
C501        N506   1.359       .  A
C501        C973   1.485       .  S
N502        C503   1.359       .  A
C503        N504   1.356       .  A
C503        C596   1.468       .  S
N504        C505   1.357       .  A
C505        N506   1.362       .  A
C505        C941   1.495       .  S
C507        N508   1.352       .  A
C507        N512   1.362       .  A
C507        C918   1.491       .  S
N508        C509   1.351       .  A
C509        N510   1.360       .  A
C509        C556   1.464       .  S
N510        C511   1.362       .  A
C511        N512   1.361       .  A
C511        C982   1.502       .  S
C513        N514   1.360       .  A
C513        N518   1.354       .  A
C513        C909   1.471       .  S
N514        C515   1.361       .  A
C515        N516   1.359       .  A
C515        C886   1.489       .  S
N516        C517   1.358       .  A
C517        N518   1.351       .  A
C517        C611   1.459       .  S
C519        N520   1.358       .  A
C519        N524   1.360       .  A
C519        C845   1.493       .  S
N520        C521   1.360       .  A
C521        N522   1.356       .  A
C521        C600   1.468       .  S
N522        C523   1.358       .  A
C523        N524   1.362       .  A
C523        C822   1.494       .  S
C525        N526   1.362       .  A
C525        N530   1.356       .  A
C525        C813   1.476       .  S
N526        C527   1.364       .  A
C527        N528   1.358       .  A
C527        C877   1.506       .  S
N528        C529   1.358       .  A
C529        N530   1.352       .  A
C529        C557   1.464       .  S
C531        N532   1.359       .  A
C531        N536   1.360       .  A
C531        C854   1.485       .  S
N532        C533   1.360       .  A
C533        N534   1.354       .  A
C533        C552   1.464       .  S
N534        C535   1.356       .  A
C535        N536   1.360       .  A
C535        C950   1.474       .  S
O537        C552   1.259       .  A
O537       Al545   1.901       .  S
C538        C591   1.466       .  S
C538        O548   1.260       .  A
C538        O539   1.254       .  A
O539       Al541   1.885       .  S
O540        C542   1.260       .  A
O540       Al541   1.903       .  S
Al541       O549   1.895       .  S
Al541       O551   1.881       .  S
Al541       O550   1.806       .  S
C542        C581   1.464       .  S
C542        O555   1.254       .  A
O543        C553   1.259       .  A
O543       Al545   1.899       .  S
O544        C557   1.260       .  A
O544       Al554   1.904       .  S
Al545       O558   1.879       .  S
Al545       O555   1.880       .  S
Al545       O550   1.806       .  S
O546        C553   1.255       .  A
O546       Al554   1.885       .  S
O547        C556   1.255       .  A
O547       Al554   1.889       .  S
O548       Al554   1.901       .  S
O549        C556   1.260       .  A
O550       Al554   1.808       .  S
O551        C552   1.254       .  A
C553        C569   1.464       .  S
C557        O558   1.254       .  A
C559        N560   1.361       .  A
C559        N564   1.357       .  A
C559        C790   1.475       .  S
N560        C561   1.361       .  A
C561        N562   1.358       .  A
C561        C758   1.490       .  S
N562        C563   1.358       .  A
C563        N564   1.355       .  A
C563        C615   1.465       .  S
C565        N566   1.363       .  A
C565        N570   1.356       .  A
C565        C781   1.492       .  S
N566        C567   1.360       .  A
C567        N568   1.358       .  A
C567        C726   1.489       .  S
N568        C569   1.359       .  A
C569        N570   1.354       .  A
C571        N572   1.358       .  A
C571        N576   1.363       .  A
C571        C685   1.493       .  S
N572        C573   1.356       .  A
C573        N574   1.358       .  A
C573        C610   1.468       .  S
N574        C575   1.357       .  A
C575        N576   1.361       .  A
C575        C717   1.501       .  S
C577        N578   1.361       .  A
C577        N582   1.356       .  A
C577        C694   1.474       .  S
N578        C579   1.362       .  A
C579        N580   1.358       .  A
C579        C653   1.492       .  S
N580        C581   1.359       .  A
C581        N582   1.353       .  A
C583        N584   1.363       .  A
C583        N588   1.359       .  A
C583        C662   1.501       .  S
N584        C585   1.362       .  A
C585        N586   1.352       .  A
C585        C614   1.464       .  S
N586        C587   1.354       .  A
C587        N588   1.357       .  A
C587        C630   1.469       .  S
C589        N590   1.362       .  A
C589        N594   1.360       .  A
C589        C749   1.503       .  S
N590        C591   1.361       .  A
C591        N592   1.352       .  A
N592        C593   1.353       .  A
C593        N594   1.362       .  A
C593        C621   1.495       .  S
O595        C610   1.259       .  A
O595       Al603   1.901       .  S
C596        O606   1.259       .  A
C596        O597   1.257       .  A
O597       Al599   1.897       .  S
O598        C600   1.260       .  A
O598       Al599   1.905       .  S
Al599       O607   1.903       .  S
Al599       O609   1.895       .  S
Al599       O608   1.802       .  S
C600        O613   1.256       .  A
O601        C611   1.259       .  A
O601       Al603   1.897       .  S
O602        C615   1.259       .  A
O602       Al612   1.898       .  S
Al603       O616   1.891       .  S
Al603       O613   1.892       .  S
Al603       O608   1.804       .  S
O604        C611   1.254       .  A
O604       Al612   1.879       .  S
O605        C614   1.254       .  A
O605       Al612   1.883       .  S
O606       Al612   1.897       .  S
O607        C614   1.261       .  A
O608       Al612   1.805       .  S
O609        C610   1.258       .  A
C615        O616   1.256       .  A
C617        C618   1.396       .  A
C617        C622   1.404       .  A
C617        H627   1.085       .  S
C618        C623   1.472       .  S
C619        C620   1.398       .  A
C619        C624   1.508       .  S
C620        C621   1.409   1_554  A
C620        H625   1.080       .  S
C622        C626   1.510       .  S
C623        C632   1.396       .  A
C624        H640   1.110       .  S
C624        H641   1.110       .  S
C624        H642   1.111       .  S
C626        H637   1.109       .  S
C626        H638   1.111       .  S
C626        H639   1.110       .  S
C628        C633   1.506       .  S
C629        C630   1.403       .  A
C630        C631   1.417       .  A
C631        C632   1.397       .  A
C631        C635   1.507       .  S
C632        H636   1.084       .  S
C633        H643   1.111       .  S
C633        H644   1.110       .  S
C633        H645   1.110       .  S
C635        H646   1.110       .  S
C635        H647   1.106       .  S
C635        H648   1.109       .  S
C649        C654   1.407       .  A
C649        H659   1.083       .  S
C650        C655   1.488       .  S
C650        C651   1.411       .  A
C651        C652   1.406       .  A
C651        C656   1.506       .  S
C652        H657   1.083       .  S
C653        C654   1.422       .  A
C654        C658   1.508       .  S
C655        C660   1.410       .  A
C655        C664   1.399       .  A
C656        H672   1.109       .  S
C656        H673   1.111       .  S
C656        H674   1.111       .  S
C658        H669   1.109       .  S
C658        H670   1.111       .  S
C658        H671   1.110       .  S
C660        C661   1.408   1_565  A
C660        C665   1.507       .  S
C661        C662   1.411       .  A
C661        H666   1.083       .  S
C662        C663   1.425       .  A
C663        C664   1.406   1_545  A
C663        C667   1.509       .  S
C664        H668   1.084       .  S
C665        H675   1.111       .  S
C665        H677   1.111       .  S
C667        H678   1.109       .  S
C667        H679   1.111       .  S
C667        H680   1.111       .  S
C681        H691   1.084       .  S
C682        C687   1.479       .  S
C682        C683   1.407       .  A
C683        C684   1.401       .  A
C683        C688   1.507       .  S
C684        C685   1.409       .  A
C684        H689   1.083       .  S
C685        C686   1.424       .  A
C687        C692   1.411       .  A
C688        H704   1.110       .  S
C688        H705   1.110       .  S
C688        H706   1.110       .  S
C690        H702   1.111       .  S
C690        H703   1.110       .  S
C692        C693   1.404   1_655  A
C692        C697   1.506       .  S
C693        H698   1.085       .  S
C694        C695   1.419   1_455  A
C695        C696   1.401       .  A
C695        C699   1.510       .  S
C696        H700   1.085       .  S
C697        H707   1.111       .  S
C697        H708   1.110       .  S
C697        H709   1.110       .  S
C699        H710   1.110       .  S
C699        H711   1.107   1_655  S
C699        H712   1.111       .  S
C713        C714   1.400       .  A
C713        C718   1.408       .  A
C713        H723   1.084       .  S
C715        C716   1.405   1_556  A
C715        C720   1.507       .  S
C716        H721   1.083       .  S
C717        C718   1.426       .  A
C718        C722   1.509       .  S
C719        C724   1.410       .  A
C720        H736   1.110   1_556  S
C720        H737   1.110       .  S
C720        H738   1.111       .  S
C722        H733   1.110       .  S
C722        H734   1.111       .  S
C722        H735   1.110       .  S
C724        C725   1.405       .  A
C724        C729   1.506       .  S
C725        C726   1.408       .  A
C725        H730   1.085       .  S
C727        C728   1.406       .  A
C727        C731   1.507       .  S
C728        H732   1.086       .  S
C729        H739   1.111       .  S
C729        H740   1.110       .  S
C729        H741   1.110       .  S
C731        H742   1.111       .  S
C731        H743   1.111       .  S
C731        H744   1.109       .  S
C745        C746   1.397       .  A
C745        C750   1.405       .  A
C745        H755   1.085       .  S
C746        C751   1.485       .  S
C747        C748   1.407       .  A
C747        C752   1.507       .  S
C748        C749   1.412   1_655  A
C748        H753   1.083   1_655  S
C750        C754   1.506   1_655  S
C751        C760   1.400       .  A
C752        H768   1.110       .  S
C752        H769   1.110       .  S
C752        H770   1.111       .  S
C754        H765   1.110       .  S
C754        H766   1.111   1_455  S
C754        H767   1.109       .  S
C756        C761   1.506       .  S
C757        C758   1.407       .  A
C758        C759   1.421       .  A
C759        C760   1.405       .  A
C759        C763   1.509       .  S
C760        H764   1.084       .  S
C761        H771   1.111       .  S
C761        H772   1.110       .  S
C761        H773   1.110       .  S
C763        H774   1.111       .  S
C763        H775   1.111       .  S
C763        H776   1.109       .  S
C777        C782   1.406       .  A
C777        H787   1.084       .  S
C778        C783   1.478       .  S
C778        C779   1.408       .  A
C779        C780   1.401       .  A
C779        C784   1.507       .  S
C780        H785   1.083       .  S
C781        C782   1.425       .  A
C782        C786   1.510       .  S
C783        C792   1.399       .  A
C784        H800   1.110       .  S
C784        H801   1.110       .  S
C784        H802   1.111       .  S
C786        H797   1.110       .  S
C786        H798   1.111       .  S
C786        H799   1.110   1_556  S
C788        C789   1.404       .  A
C788        C793   1.506   1_545  S
C789        H794   1.085       .  S
C790        C791   1.419       .  A
C791        C792   1.401   1_545  A
C791        C795   1.510       .  S
C792        H796   1.085       .  S
C793        H803   1.111   1_565  S
C793        H804   1.110       .  S
C793        H805   1.110       .  S
C795        H806   1.111       .  S
C795        H807   1.106       .  S
C795        H808   1.111       .  S
C809        C810   1.399       .  A
C809        C814   1.402       .  A
C809        H819   1.084       .  S
C810        C815   1.479       .  S
C810        C811   1.411       .  A
C811        C812   1.404       .  A
C811        C816   1.506       .  S
C812        C813   1.403       .  A
C812        H817   1.083       .  S
C813        C814   1.420       .  A
C814        C818   1.510       .  S
C815        C820   1.407       .  A
C815        C824   1.399       .  A
C816        H832   1.110       .  S
C816        H833   1.110       .  S
C816        H834   1.111       .  S
C818        H829   1.111       .  S
C818        H830   1.111       .  S
C818        H831   1.106       .  S
C820        C821   1.401       .  A
C820        C825   1.507       .  S
C821        C822   1.410       .  A
C821        H826   1.083       .  S
C822        C823   1.425       .  A
C823        C824   1.406       .  A
C823        C827   1.509       .  S
C824        H828   1.084       .  S
C825        H835   1.111       .  S
C825        H836   1.110       .  S
C825        H837   1.110       .  S
C827        H838   1.111       .  S
C827        H839   1.110       .  S
C827        H840   1.109       .  S
C841        C842   1.403       .  A
C841        C846   1.409       .  A
C841        H851   1.084       .  S
C842        C847   1.488       .  S
C842        C843   1.411       .  A
C843        C844   1.404       .  A
C843        C848   1.507       .  S
C844        C845   1.408       .  A
C844        H849   1.084       .  S
C845        C846   1.421       .  A
C846        C850   1.508       .  S
C847        C852   1.412       .  A
C847        C856   1.403       .  A
C848        H864   1.110       .  S
C848        H865   1.110       .  S
C848        H866   1.111       .  S
C850        H861   1.111       .  S
C850        H862   1.111       .  S
C850        H863   1.109       .  S
C852        C853   1.405       .  A
C852        C857   1.506       .  S
C853        C854   1.405   1_655  A
C853        H858   1.086   1_655  S
C854        C855   1.416       .  A
C855        C856   1.407   1_455  A
C855        C859   1.507       .  S
C856        H860   1.086       .  S
C857        H867   1.111       .  S
C857        H868   1.109       .  S
C857        H869   1.111       .  S
C859        H870   1.111       .  S
C859        H871   1.110       .  S
C859        H872   1.109       .  S
C873        C874   1.398       .  A
C873        C878   1.409       .  A
C873        H883   1.084       .  S
C874        C879   1.485       .  S
C874        C875   1.408       .  A
C875        C876   1.405       .  A
C875        C880   1.507       .  S
C876        C877   1.412       .  A
C876        H881   1.082       .  S
C877        C878   1.430       .  A
C878        C882   1.510       .  S
C879        C884   1.410       .  A
C879        C888   1.401   1_565  A
C880        H896   1.110       .  S
C880        H897   1.110       .  S
C880        H898   1.110       .  S
C882        H893   1.110       .  S
C882        H894   1.111       .  S
C882        H895   1.110       .  S
C884        C885   1.405   1_565  A
C884        C889   1.506       .  S
C885        C886   1.408       .  A
C885        H890   1.085       .  S
C886        C887   1.418       .  A
C887        C888   1.406       .  A
C887        C891   1.508       .  S
C888        H892   1.085   1_545  S
C889        H899   1.111       .  S
C889        H900   1.110       .  S
C889        H901   1.109       .  S
C891        H902   1.111       .  S
C891        H903   1.111       .  S
C891        H904   1.108       .  S
C905        C906   1.397       .  A
C905        C910   1.398       .  A
C905        H915   1.084       .  S
C906        C911   1.473       .  S
C906        C907   1.410       .  A
C907        C908   1.404       .  A
C907        C912   1.506       .  S
C908        C909   1.404       .  A
C908        H913   1.083       .  S
C909        C910   1.419       .  A
C910        C914   1.511       .  S
C911        C916   1.406       .  A
C911        C920   1.397       .  A
C912        H928   1.110       .  S
C912        H929   1.110       .  S
C912        H930   1.111       .  S
C914        H925   1.111       .  S
C914        H926   1.110       .  S
C914        H927   1.106       .  S
C916        C917   1.397       .  A
C916        C921   1.508       .  S
C917        C918   1.407   1_655  A
C917        H922   1.082   1_655  S
C918        C919   1.427   1_455  A
C919        C920   1.405       .  A
C919        C923   1.510   1_655  S
C920        H924   1.086       .  S
C921        H931   1.111       .  S
C921        H932   1.110       .  S
C921        H933   1.110       .  S
C923        H934   1.111   1_455  S
C923        H935   1.110       .  S
C923        H936   1.109       .  S
C937        C938   1.398       .  A
C937        C942   1.406   1_565  A
C937        H947   1.083       .  S
C938        C943   1.477       .  S
C938        C939   1.406   1_565  A
C939        C940   1.401       .  A
C939        C944   1.507   1_545  S
C940        C941   1.410       .  A
C940        H945   1.081       .  S
C941        C942   1.426       .  A
C942        C946   1.509       .  S
C943        C948   1.410       .  A
C943        C952   1.398       .  A
C944        H960   1.110       .  S
C944        H961   1.110       .  S
C944        H962   1.111   1_565  S
C946        H957   1.109       .  S
C946        H958   1.111       .  S
C946        H959   1.110       .  S
C948        C949   1.403       .  A
C948        C953   1.506       .  S
C949        C950   1.403       .  A
C949        H954   1.084       .  S
C950        C951   1.419       .  A
C951        C952   1.401       .  A
C951        C955   1.510       .  S
C952        H956   1.085       .  S
C953        H963   1.111       .  S
C953        H964   1.110       .  S
C953        H965   1.110       .  S
C955        H966   1.111       .  S
C955        H967   1.106       .  S
C955        H968   1.111       .  S
C969        C970   1.398       .  A
C969        C974   1.403       .  A
C969        H979   1.085       .  S
C970        C975   1.484       .  S
C970        C971   1.411       .  A
C971        C972   1.407       .  A
C971        C976   1.506       .  S
C972        C973   1.407       .  A
C972        H977   1.084       .  S
C973        C974   1.419       .  A
C974        C978   1.506       .  S
C975        C980   1.408       .  A
C975        C984   1.398       .  A
C976        H992   1.111       .  S
C976        H993   1.110       .  S
C976        H994   1.111       .  S
C978        H989   1.110       .  S
C978        H990   1.109       .  S
C978        H991   1.105       .  S
C980        C981   1.406       .  A
C980        C985   1.507       .  S
C981        C982   1.412       .  A
C981        H986   1.084       .  S
C982        C983   1.426       .  A
C983        C984   1.406       .  A
C983        C987   1.507       .  S
C984        H988   1.085       .  S
C985        H995   1.111       .  S
C985        H996   1.110       .  S
C985        H997   1.110       .  S
C987        H998   1.109       .  S
C987        H999   1.110       .  S
C987       H1000   1.111       .  S
