geometry optimzed in LAMMPS
_audit_creation_date              2020-11-30 
_audit_creation_method            'lammps2cif' 
_symmetry_space_group_name_H-M    'P1' 
_symmetry_Int_Tables_number       1 
_symmetry_cell_setting            triclinic 
loop_ 
_symmetry_equiv_pos_as_xyz 
  x,y,z 
_cell_length_a                    28.426059648612146 
_cell_length_b                    31.47856815500684 
_cell_length_c                    52.14970264325722 
_cell_angle_alpha                 91.13443083390425 
_cell_angle_beta                  89.75918785969571 
_cell_angle_gamma                 90.21917802023916 
loop_ 
_atom_site_label 
_atom_site_type_symbol 
_atom_site_fract_x 
_atom_site_fract_y 
_atom_site_fract_z 
_atom_site_charge 
N1          N  0.83661782  0.40433925  0.29733234    -0.07580
N2          N  0.86663638  0.41987435  0.31470528    -0.59700
N3          N  0.85209111  0.31452901  0.26399291    -0.07260
N4          N  0.88301875  0.28290009  0.26367187    -0.61830
N5          N  0.87080409  0.34788027  0.25282532    -0.06860
N6          N  0.91415001  0.33959763  0.24483109    -0.59680
N7          N  0.81268573  0.37309634  0.30748594    -0.06540
N8          N  0.82335326  0.36843978  0.33166129    -0.62180
C9          C  0.85676466  0.39760224  0.33630343     0.94600
C10         C  0.92153788  0.29878198  0.25138236     0.94370
N11         N  0.70928254  0.27438129  0.25204906    -0.07770
N12         N  0.69779705  0.23831184  0.24005622    -0.60280
N13         N  0.71553470  0.33352995  0.30629183    -0.05890
N14         N  0.71116604  0.34534304  0.33065048    -0.61530
N15         N  0.67580921  0.33987840  0.29409334    -0.07800
N16         N  0.64382523  0.35604916  0.30989589    -0.60550
N17         N  0.74947705  0.27018251  0.26400649    -0.05530
N18         N  0.76567806  0.23143175  0.26100361    -0.61620
Mn19       Mn  0.78250435  0.32167038  0.28548052     1.18440
C20         C  0.73359942  0.21186467  0.24585299     0.96680
C21         C  0.66621985  0.35897395  0.33270028     0.97340
N22         N  0.83404369  0.41388126  0.21185807    -0.07820
N23         N  0.86997193  0.42112425  0.19627711    -0.64120
N24         N  0.75581855  0.47472911  0.24172816    -0.06620
N25         N  0.73949705  0.51381494  0.24371617    -0.64800
N26         N  0.79456359  0.47087597  0.25538618    -0.07320
N27         N  0.80520585  0.50764555  0.26673668    -0.64390
N28         N  0.79423426  0.41661949  0.19916943    -0.06220
N29         N  0.80232168  0.42599983  0.17504105    -0.65080
Mn30       Mn  0.83511316  0.41025525  0.25444218     1.10660
C31         C  0.84958374  0.42831063  0.17329950     0.97900
C32         C  0.77034333  0.53408338  0.25939502     0.97980
N33         N  0.63806531  0.39892884  0.25046122    -0.07330
N34         N  0.59426094  0.40901148  0.25665473    -0.62700
N35         N  0.69666041  0.36556541  0.19725456    -0.06650
N36         N  0.69476591  0.35601804  0.17244228    -0.59430
N37         N  0.67555604  0.33571753  0.21034241    -0.07960
N38         N  0.65867725  0.30597610  0.19490728    -0.62270
N39         N  0.65719076  0.42940013  0.23712326    -0.06950
N40         N  0.62667398  0.46028015  0.23379796    -0.59460
Mn41       Mn  0.67326172  0.33654921  0.25207389     1.20190
Mn42       Mn  0.72593719  0.42201908  0.21819630     1.10090
Cl43       Cl  0.75454408  0.37269286  0.25234550    -0.87430
C44         C  0.58725728  0.44762957  0.24614299     0.94910
C45         C  0.67100331  0.31840686  0.17122043     0.94700
N46         N  0.80598819  0.97972743  0.25369226    -0.07580
N47         N  0.81154986  0.01403726  0.23973781    -0.59700
N48         N  0.80793938  0.92285755  0.30767745    -0.07260
N49         N  0.81417141  0.91231167  0.33171896    -0.61830
N50         N  0.84702944  0.91783603  0.29448468    -0.06860
N51         N  0.88067399  0.90324145  0.30935062    -0.59680
N52         N  0.76722926  0.98276052  0.26728723    -0.06540
N53         N  0.74581936  0.01891578  0.26321049    -0.62180
C54         C  0.77355265  0.03816855  0.24591638     0.94600
C55         C  0.85970557  0.90064730  0.33262699     0.94370
N56         N  0.68945904  0.84535184  0.29884286    -0.07770
N57         N  0.66202583  0.82741003  0.31622207    -0.60280
N58         N  0.67196404  0.93579401  0.26952305    -0.05890
N59         N  0.64507368  0.96972046  0.26915956    -0.61530
N60         N  0.65105460  0.90354002  0.25786471    -0.07800
N61         N  0.60898707  0.91518679  0.24988179    -0.60550
N62         N  0.71326855  0.87669699  0.30970461    -0.05530
N63         N  0.70443538  0.87932811  0.33432894    -0.61620
Mn64       Mn  0.74001912  0.93026000  0.28893549     1.18440
C65         C  0.67260508  0.84866107  0.33844777     0.96680
C66         C  0.60564945  0.95695510  0.25686575     0.97340
N67         N  0.87963029  0.85696173  0.25060927    -0.07820
N68         N  0.91995046  0.84499738  0.26071576    -0.64120
N69         N  0.81744184  0.88710217  0.19853277    -0.06620
N70         N  0.81109103  0.89689247  0.17432527    -0.64800
N71         N  0.83844658  0.91868960  0.21077830    -0.07320
N72         N  0.84729622  0.95023832  0.19514271    -0.64390
N73         N  0.85948155  0.82485130  0.23846388    -0.06220
N74         N  0.88531639  0.79040161  0.24011073    -0.65080
Mn75       Mn  0.84496871  0.91921774  0.25239673     1.10660
C76         C  0.92242750  0.80312713  0.25437297     0.97900
C77         C  0.83011718  0.93624878  0.17238414     0.97980
N78         N  0.68434301  0.83711451  0.21328619    -0.07330
N79         N  0.64846762  0.82908371  0.19771794    -0.62700
N80         N  0.76410706  0.77654592  0.24052663    -0.06650
N81         N  0.78136157  0.73782365  0.24118844    -0.59430
N82         N  0.72608303  0.77963933  0.25491922    -0.07960
N83         N  0.71735165  0.74277570  0.26588303    -0.62270
N84         N  0.72400893  0.83447974  0.20027025    -0.06950
N85         N  0.71608186  0.82462247  0.17602909    -0.59460
Mn86       Mn  0.68596106  0.84053147  0.25626096     1.20190
Mn87       Mn  0.79202169  0.83029818  0.21879940     1.10090
Cl88       Cl  0.76552612  0.87991576  0.25405600    -0.87430
C89         C  0.66891763  0.82175919  0.17440066     0.94910
C90         C  0.75242228  0.71682593  0.25723216     0.94700
N91         N  0.16865277  0.18555084  0.26707766    -0.07580
N92         N  0.13931677  0.21793945  0.26765823    -0.59700
N93         N  0.18683290  0.09671790  0.29859135    -0.07260
N94         N  0.16112138  0.07816425  0.31664302    -0.61830
N95         N  0.20840939  0.12998087  0.30871985    -0.06860
N96         N  0.19944627  0.13408014  0.33324753    -0.59680
N97         N  0.14891885  0.15231043  0.25572509    -0.06540
N98         N  0.10549132  0.16205270  0.24868822    -0.62180
C99         C  0.09970866  0.20353470  0.25607056     0.94600
C100        C  0.17045348  0.10172442  0.33832655     0.94370
N101        N  0.26767045  0.02643964  0.24146610    -0.07770
N102        N  0.28370337  0.98704377  0.24161480    -0.60280
N103        N  0.18739799  0.08329234  0.21260285    -0.05890
N104        N  0.15313989  0.07003271  0.19715876    -0.61530
N105        N  0.22753767  0.08329649  0.19985308    -0.07800
N106        N  0.22102784  0.07131063  0.17581221    -0.60550
N107        N  0.22845241  0.02943318  0.25509824    -0.05530
N108        N  0.21717236  0.99185522  0.26444054    -0.61620
Mn109      Mn  0.18642873  0.08950006  0.25552025     1.18440
C110        C  0.25245779  0.96585133  0.25631978     0.96680
C111        C  0.17470618  0.06286203  0.17413275     0.97340
N112        N  0.30391252  0.17344765  0.30745863    -0.07820
N113        N  0.30872495  0.16353636  0.33176337    -0.64120
N114        N  0.30545880  0.22955870  0.25277296    -0.06620
N115        N  0.31125363  0.26218119  0.23744436    -0.64800
N116        N  0.26548152  0.23304810  0.26521250    -0.07320
N117        N  0.24359138  0.26809424  0.25900232    -0.64390
N118        N  0.34405695  0.16872955  0.29519108    -0.06220
N119        N  0.37701384  0.15603027  0.31116033    -0.65080
Mn120      Mn  0.23677918  0.18141250  0.28729849     1.10660
C121        C  0.35456419  0.15313278  0.33410617     0.97900
C122        C  0.27226756  0.28597985  0.24154805     0.97980
N123        N  0.32283692  0.13756181  0.19768730    -0.07330
N124        N  0.32269711  0.14768183  0.17303384    -0.62700
N125        N  0.38289629  0.10851574  0.25038010    -0.06650
N126        N  0.42688900  0.09961504  0.25642664    -0.59430
N127        N  0.36403305  0.07622226  0.23788302    -0.07960
N128        N  0.39448685  0.04493636  0.23557027    -0.62270
N129        N  0.34087001  0.16917216  0.21126119    -0.06950
N130        N  0.35204422  0.20108898  0.19656885    -0.59460
Mn131      Mn  0.29576293  0.08042156  0.21868879     1.20190
Mn132      Mn  0.34500964  0.16963768  0.25281639     1.10090
Cl133      Cl  0.26579754  0.12993972  0.25354178    -0.87430
C134        C  0.34131970  0.18778338  0.17263588     0.94910
C135        C  0.43402271  0.05952927  0.24707361     0.94700
N136        N  0.33788487  0.55829100  0.26190576    -0.07580
N137        N  0.36826115  0.52678616  0.26258656    -0.59700
N138        N  0.31950114  0.64627327  0.29646123    -0.07260
N139        N  0.34324678  0.66400624  0.31606003    -0.61830
N140        N  0.29799079  0.61210265  0.30471304    -0.06860
N141        N  0.30523646  0.60642212  0.32905558    -0.59680
N142        N  0.35734565  0.59179258  0.25136753    -0.06540
N143        N  0.40107658  0.58279414  0.24441987    -0.62180
C144        C  0.40783292  0.54191252  0.25149537     0.94600
C145        C  0.33260571  0.63877888  0.33651391     0.94370
N146        N  0.24064864  0.71647593  0.23929056    -0.07770
N147        N  0.22407266  0.75549103  0.23898592    -0.60280
N148        N  0.32122865  0.66177789  0.21005133    -0.05890
N149        N  0.35424320  0.67915165  0.19541232    -0.61530
N150        N  0.28134637  0.65961671  0.19719021    -0.07800
N151        N  0.28659031  0.67452345  0.17401076    -0.60550
N152        N  0.27938384  0.71524119  0.25309924    -0.05530
N153        N  0.29014802  0.75418267  0.26154637    -0.61620
Mn154      Mn  0.32103077  0.65481501  0.25302075     1.18440
C155        C  0.25488373  0.77928564  0.25276468     0.96680
C156        C  0.33188055  0.68630809  0.17289653     0.97340
N157        N  0.20219087  0.57081164  0.30232872    -0.07820
N158        N  0.19780204  0.58402900  0.32636719    -0.64120
N159        N  0.19953811  0.51403706  0.24727675    -0.06620
N160        N  0.19098844  0.47992510  0.23279319    -0.64800
N161        N  0.24023044  0.51050252  0.25871097    -0.07320
N162        N  0.26010639  0.47399566  0.25262917    -0.64390
N163        N  0.16256889  0.57655798  0.29000060    -0.06220
N164        N  0.13051580  0.59364619  0.30533726    -0.65080
Mn165      Mn  0.26954701  0.56181903  0.28194690     1.10660
C166        C  0.15293821  0.59766278  0.32800045     0.97900
C167        C  0.22921579  0.45527200  0.23634360     0.97980
N168        N  0.18621972  0.60365895  0.19407093    -0.07330
N169        N  0.18702981  0.59122052  0.16946770    -0.62700
N170        N  0.12581064  0.63674175  0.24755406    -0.06650
N171        N  0.08385672  0.64936171  0.25587559    -0.59430
N172        N  0.14700041  0.66782485  0.23577819    -0.07960
N173        N  0.12126355  0.70227797  0.23647961    -0.62270
N174        N  0.16613006  0.57386291  0.20763248    -0.06950
N175        N  0.15402298  0.54103557  0.19334277    -0.59460
Mn176      Mn  0.21360799  0.66176303  0.21594549     1.20190
Mn177      Mn  0.16172937  0.57475975  0.24847240     1.10090
Cl178      Cl  0.24191362  0.61357018  0.24978656    -0.87430
C179        C  0.16634749  0.55183302  0.16956908     0.94910
C180        C  0.08169864  0.69067063  0.24870243     0.94700
N181        N  0.58923542  0.20618463  0.04358444    -0.07580
N182        N  0.62323647  0.22088385  0.05849978    -0.59700
N183        N  0.51122752  0.13811653  0.01738059    -0.07260
N184        N  0.49299396  0.09984584  0.01739894    -0.61830
N185        N  0.55129275  0.13876481  0.00485098    -0.06860
N186        N  0.56156510  0.10027098  0.99596388    -0.59680
N187        N  0.54948307  0.20382245  0.05644670    -0.06540
N188        N  0.55559798  0.21675338  0.08041681    -0.62180
C189        C  0.60178082  0.22686393  0.08145295     0.94600
C190        C  0.52437826  0.07680496  0.00390556     0.94370
N191        N  0.39557823  0.21489773  0.00359925    -0.07770
N192        N  0.35270082  0.20409694  0.99646169    -0.60280
N193        N  0.45254206  0.24639397  0.05655468    -0.05890
N194        N  0.43907098  0.24225712  0.08039156    -0.61530
N195        N  0.42781150  0.27554206  0.04495948    -0.07800
N196        N  0.39489381  0.29023639  0.06107410    -0.60550
N197        N  0.41500412  0.18385017  0.01624194    -0.05530
N198        N  0.38584767  0.15129294  0.01737138    -0.61620
Mn199      Mn  0.48221569  0.19249563  0.03687170     1.18440
C200        C  0.34692968  0.16392717  0.00482233     0.96680
C201        C  0.40354050  0.26954655  0.08329055     0.97340
N202        N  0.58664605  0.19452121  0.95982842    -0.07820
N203        N  0.60183945  0.16378147  0.94441562    -0.64120
N204        N  0.60672346  0.29111675  0.98545334    -0.06620
N205        N  0.63422499  0.32494874  0.98523633    -0.64800
N206        N  0.62572802  0.26076036  0.99874622    -0.07320
N207        N  0.66677286  0.27330689  0.00800556    -0.64390
N208        N  0.56782653  0.22515260  0.94656934    -0.06220
N209        N  0.56990934  0.21611077  0.92179598    -0.65080
Mn210      Mn  0.58993967  0.19899606  0.00177795     1.10660
C211        C  0.59104954  0.17772386  0.92081516     0.97900
C212        C  0.67139085  0.31356366  0.99953468     0.97980
N213        N  0.47189415  0.33649076  0.00007657    -0.07330
N214        N  0.46316109  0.37512198  0.00935391    -0.62700
N215        N  0.47260618  0.27501548  0.94648726    -0.06650
N216        N  0.46695542  0.28332891  0.92208639    -0.59430
N217        N  0.43211431  0.27654341  0.95883311    -0.07960
N218        N  0.39823641  0.28699266  0.94270075    -0.62270
N219        N  0.51143969  0.33659540  0.98680646    -0.06950
N220        N  0.53081032  0.37438623  0.98722511    -0.59460
Mn221      Mn  0.43033755  0.27702136  0.00183641     1.20190
Mn222      Mn  0.53976568  0.28220441  0.96581745     1.10090
Cl223      Cl  0.51033740  0.23771675  0.00151665    -0.87430
C224        C  0.50052757  0.39818951  0.00104570     0.94910
C225        C  0.42066225  0.29078829  0.91975938     0.94700
N226        N  0.58690799  0.71202287  0.04488892    -0.07580
N227        N  0.61924959  0.72899270  0.06027270    -0.59700
N228        N  0.51099538  0.63938256  0.01988587    -0.07260
N229        N  0.49744514  0.59995685  0.02314479    -0.61830
N230        N  0.55143121  0.64097493  0.00780727    -0.06860
N231        N  0.56656990  0.60215780  0.00256455    -0.59680
N232        N  0.54681769  0.70832318  0.05733902    -0.06540
N233        N  0.55096465  0.72285548  0.08106843    -0.62180
C234        C  0.59627964  0.73524544  0.08298044     0.94600
C235        C  0.53232494  0.57704816  0.01232391     0.94370
N236        N  0.39222984  0.71420912  0.00431412    -0.07770
N237        N  0.35153367  0.70109802  0.99486435    -0.60280
N238        N  0.45116876  0.74834454  0.05768031    -0.05890
N239        N  0.44094912  0.74524845  0.08204603    -0.61530
N240        N  0.42379842  0.77567062  0.04645401    -0.07800
N241        N  0.39146417  0.78914116  0.06328939    -0.60550
N242        N  0.41260513  0.68351402  0.01687012    -0.05530
N243        N  0.38608741  0.64898676  0.01577866    -0.61620
Mn244      Mn  0.48011323  0.69423286  0.03798100     1.18440
C245        C  0.34786518  0.65996861  0.00190846     0.96680
C246        C  0.40365697  0.77036858  0.08571726     0.97340
N247        N  0.57899579  0.69558258  0.95994849    -0.07820
N248        N  0.58890005  0.66327751  0.94415737    -0.64120
N249        N  0.60288609  0.79332183  0.98402734    -0.06620
N250        N  0.63138158  0.82632360  0.98206083    -0.64800
N251        N  0.62234142  0.76385455  0.99771029    -0.07320
N252        N  0.66416841  0.77671217  0.00573896    -0.64390
N253        N  0.55857635  0.72616536  0.94722797    -0.06220
N254        N  0.55404533  0.71541090  0.92281447    -0.65080
Mn255      Mn  0.58698497  0.70219875  0.00252122     1.10660
C256        C  0.57285160  0.67612036  0.92106038     0.97900
C257        C  0.66976659  0.81599034  0.99583323     0.97980
N258        N  0.46640590  0.83718462  0.00179367    -0.07330
N259        N  0.45613644  0.87549447  0.01092879    -0.62700
N260        N  0.46577485  0.77996376  0.94806066    -0.06650
N261        N  0.45977167  0.79525968  0.92506995    -0.59430
N262        N  0.42562336  0.77939084  0.96068024    -0.07960
N263        N  0.39185558  0.79442741  0.94590873    -0.62270
N264        N  0.50577505  0.83844848  0.98826683    -0.06950
N265        N  0.52332411  0.87697651  0.98815906    -0.59460
Mn266      Mn  0.42535832  0.77740877  0.00337613     1.20190
Mn267      Mn  0.53370206  0.78454312  0.96649432     1.10090
Cl268      Cl  0.50637284  0.73954038  0.00245278    -0.87430
C269        C  0.49243459  0.89943088  0.00238431     0.94910
C270        C  0.41368209  0.80395888  0.92348091     0.94700
N271        N  0.08371840  0.96277544  0.04376407    -0.07580
N272        N  0.11611653  0.97839896  0.05955232    -0.59700
N273        N  0.00596716  0.89449731  0.01443346    -0.07260
N274        N  0.98714182  0.85643797  0.01155819    -0.61830
N275        N  0.04566526  0.89728524  0.00176003    -0.06860
N276        N  0.05450105  0.86096002  0.98954078    -0.59680
N277        N  0.04397325  0.95732493  0.05618846    -0.06540
N278        N  0.04860033  0.96852540  0.08057059    -0.62180
C279        C  0.09376731  0.98152554  0.08259145     0.94600
C280        C  0.01757326  0.83572548  0.99588272     0.94370
N281        N  0.89002860  0.97336209  0.00318209    -0.07770
N282        N  0.84671057  0.96254243  0.99634122    -0.60280
N283        N  0.94982543  0.00155458  0.05735230    -0.05890
N284        N  0.93698772  0.99512980  0.08108107    -0.61530
N285        N  0.92297488  0.03006725  0.04670421    -0.07800
N286        N  0.88833476  0.04038434  0.06293362    -0.60550
N287        N  0.91041117  0.94132133  0.01444548    -0.05530
N288        N  0.88184535  0.90828713  0.01468038    -0.61620
Mn289      Mn  0.97752115  0.94807213  0.03573098     1.18440
C290        C  0.84162034  0.92157007  0.00378285     0.96680
C291        C  0.89824271  0.01856194  0.08457872     0.97340
N292        N  0.08150288  0.95662174  0.95946470    -0.07820
N293        N  0.09803454  0.92635676  0.94429077    -0.64120
N294        N  0.10180551  0.05082332  0.98718078    -0.06620
N295        N  0.12986461  0.08413534  0.98765923    -0.64800
N296        N  0.12078371  0.01947076  0.99953429    -0.07320
N297        N  0.16256459  0.03085505  0.00830782    -0.64390
N298        N  0.06337083  0.98738029  0.94603486    -0.06220
N299        N  0.06825835  0.97812158  0.92118087    -0.65080
Mn300      Mn  0.08451176  0.95817797  0.00130695     1.10660
C301        C  0.09002845  0.93945216  0.92027658     0.97900
C302        C  0.16776671  0.07178437  0.00106710     0.97980
N303        N  0.96738585  0.09637405  0.00441848    -0.07330
N304        N  0.95750630  0.13414284  0.01477582    -0.62700
N305        N  0.96642111  0.04229772  0.94816425    -0.06650
N306        N  0.95942410  0.05944202  0.92559786    -0.59430
N307        N  0.92693381  0.04208881  0.96156408    -0.07960
N308        N  0.89313441  0.05986815  0.94820968    -0.62270
N309        N  0.00643510  0.09859588  0.99063811    -0.06950
N310        N  0.02405313  0.13732913  0.99175837    -0.59460
Mn311      Mn  0.92560237  0.03621051  0.00397406     1.20190
Mn312      Mn  0.03470354  0.04485811  0.96727022     1.10090
Cl313      Cl  0.00534961  0.99689150  0.00185115    -0.87430
C314        C  0.99373469  0.15905380  0.00697290     0.94910
C315        C  0.91361528  0.07038662  0.92571585     0.94700
N316        N  0.93196500  0.52915920  0.04452105    -0.07580
N317        N  0.90055969  0.51377488  0.06068702    -0.59700
N318        N  0.00613104  0.59554868  0.01407606    -0.07260
N319        N  0.02316431  0.63416658  0.01250382    -0.61830
N320        N  0.96584617  0.59214880  0.00210943    -0.06860
N321        N  0.95537477  0.62886664  0.99143483    -0.59680
N322        N  0.97294037  0.53384194  0.05589678    -0.06540
N323        N  0.97008262  0.52144481  0.07989739    -0.62180
C324        C  0.92470143  0.50937216  0.08280796     0.94600
C325        C  0.99198157  0.65487853  0.99803250     0.94370
N326        N  0.12163225  0.51508788  0.99859122    -0.07770
N327        N  0.16409464  0.52304895  0.98941183    -0.60280
N328        N  0.06974877  0.49300242  0.05380075    -0.05890
N329        N  0.08028428  0.49712901  0.07803128    -0.61530
N330        N  0.09024282  0.45970736  0.04315160    -0.07800
N331        N  0.11700017  0.44097793  0.06054703    -0.60550
N332        N  0.10466118  0.54883021  0.01076938    -0.05530
N333        N  0.13564199  0.58033284  0.01009403    -0.61620
Mn334      Mn  0.03845154  0.54381788  0.03382306     1.18440
C335        C  0.17230062  0.56398366  0.99641245     0.96680
C336        C  0.10916717  0.46473374  0.08234326     0.97340
N337        N  0.92929538  0.52743890  0.96066541    -0.07820
N338        N  0.91251282  0.55543978  0.94471456    -0.64120
N339        N  0.91085693  0.43540486  0.98985694    -0.06620
N340        N  0.88203875  0.40276101  0.98890213    -0.64800
N341        N  0.89105497  0.46779088  0.00172782    -0.07320
N342        N  0.84794057  0.45715392  0.00907842    -0.64390
N343        N  0.94747708  0.49472962  0.94808042    -0.06220
N344        N  0.94304125  0.49980847  0.92307439    -0.65080
Mn345      Mn  0.92767745  0.53025924  0.00240273     1.10660
C346        C  0.92153008  0.53799817  0.92137847     0.97900
C347        C  0.84277668  0.41592115  0.00111886     0.97980
N348        N  0.04773939  0.39065229  0.00013563    -0.07330
N349        N  0.07059866  0.35919706  0.00664232    -0.62700
N350        N  0.04072093  0.44265274  0.94726336    -0.06650
N351        N  0.04398004  0.42513820  0.92432960    -0.59430
N352        N  0.08225935  0.44615093  0.95798789    -0.07960
N353        N  0.11470569  0.43062062  0.94211828    -0.62270
N354        N  0.00633796  0.38406026  0.98987150    -0.06950
N355        N  0.04922949  0.37037151  0.99898023    -0.59460
Mn356      Mn  0.08599023  0.45271693  0.00021625     1.20190
Mn357      Mn  0.97665158  0.43975566  0.96891500     1.10090
Cl358      Cl  0.00729404  0.49154946  0.00137071    -0.87430
C359        C  0.05867311  0.32539707  0.99402279     0.94910
C360        C  0.09008988  0.41805861  0.92099948     0.94700
N361        N  0.82102375  0.13896022  0.79752927    -0.07580
N362        N  0.84208673  0.16022483  0.81671324    -0.59700
N363        N  0.83890774  0.04816321  0.76460502    -0.07260
N364        N  0.86709315  0.01505430  0.76428238    -0.61830
N365        N  0.85978022  0.08101751  0.75419572    -0.06860
N366        N  0.90313690  0.07076161  0.74712219    -0.59680
N367        N  0.79945583  0.10565715  0.80683766    -0.06540
N368        N  0.80402286  0.10383730  0.83165866    -0.62180
C369        C  0.82990629  0.13791030  0.83806518     0.94600
C370        C  0.90727267  0.02923599  0.75344338     0.94370
N371        N  0.70160683  0.00467664  0.75118914    -0.07770
N372        N  0.69100220  0.96807429  0.73976292    -0.59480
N373        N  0.70379393  0.06267810  0.80534236    -0.05890
N374        N  0.69803699  0.07378284  0.82966213    -0.61530
N375        N  0.66427429  0.06754998  0.79282535    -0.07800
N376        N  0.63082436  0.08194160  0.80826592    -0.60550
N377        N  0.74242475  0.00224321  0.76258154    -0.05530
N378        N  0.76087391  0.96445924  0.75923471    -0.61620
Mn379      Mn  0.77130237  0.05378237  0.78501813     1.18440
C380        C  0.72894606  0.94374019  0.74467098     0.96680
C381        C  0.65225453  0.08490518  0.83125962     0.97340
N382        N  0.82339432  0.14630778  0.71102017    -0.07820
N383        N  0.85732299  0.15872058  0.69521082    -0.64120
N384        N  0.74398964  0.20508348  0.73984933    -0.06620
N385        N  0.72715357  0.24402537  0.74061684    -0.64800
N386        N  0.78243479  0.20288674  0.75384894    -0.07320
N387        N  0.79265364  0.24058461  0.76409729    -0.64390
N388        N  0.78326649  0.14445456  0.69843924    -0.06220
N389        N  0.78923474  0.15420299  0.67428719    -0.65080
Mn390      Mn  0.82357580  0.14348739  0.75423316     1.10660
C391        C  0.83521662  0.16320528  0.67229640     0.97900
C392        C  0.75721145  0.26565062  0.75607772     0.97980
N393        N  0.62986087  0.12744134  0.75028022    -0.07330
N394        N  0.58970465  0.14023031  0.76055780    -0.62700
N395        N  0.68746112  0.09296381  0.69644172    -0.06650
N396        N  0.68918127  0.08046589  0.67199368    -0.59430
N397        N  0.66802059  0.06298444  0.71003690    -0.07960
N398        N  0.65724010  0.02983587  0.69559148    -0.62270
N399        N  0.64872442  0.15794105  0.73688473    -0.06950
N400        N  0.62189174  0.19190527  0.73746194    -0.59460
Mn401      Mn  0.66408463  0.06512806  0.75127005     1.20190
Mn402      Mn  0.71559610  0.15055101  0.71715039     1.10090
Cl403      Cl  0.74391173  0.10347533  0.75189225    -0.87430
C404        C  0.58525617  0.18064546  0.75239674     0.94910
C405        C  0.67012768  0.04055491  0.67179076     0.94700
N406        N  0.66874891  0.57481894  0.79346317    -0.07580
N407        N  0.63084929  0.57214219  0.80857309    -0.59700
N408        N  0.65835289  0.66251154  0.76663783    -0.07260
N409        N  0.62981665  0.69554017  0.76855785    -0.61830
N410        N  0.63951431  0.63287065  0.75181140    -0.06860
N411        N  0.59775321  0.64528106  0.74373659    -0.59680
N412        N  0.70107939  0.59710742  0.80561815    -0.06540
N413        N  0.68895121  0.60415574  0.82951325    -0.62180
C414        C  0.64456581  0.59062840  0.83127701     0.94600
C415        C  0.59183160  0.68491631  0.75414094     0.94370
N416        N  0.79507708  0.70734949  0.75587272    -0.07770
N417        N  0.80329617  0.74548551  0.74648970    -0.60280
N418        N  0.79390961  0.64439828  0.80669807    -0.05890
N419        N  0.79919046  0.63265827  0.83059374    -0.61530
N420        N  0.83377407  0.64078604  0.79419332    -0.07800
N421        N  0.86655008  0.62541660  0.80931969    -0.60550
N422        N  0.75452867  0.70710971  0.76787420    -0.05530
N423        N  0.73380271  0.74397161  0.76671880    -0.61620
Mn424      Mn  0.72689376  0.65317039  0.78691983     1.18440
C425        C  0.76448152  0.76787533  0.75371089     0.96680
C426        C  0.84462746  0.62072929  0.83225727     0.97340
N427        N  0.67829592  0.56581908  0.70740485    -0.07820
N428        N  0.64548186  0.54958759  0.69202896    -0.64120
N429        N  0.75649867  0.50857084  0.73711400    -0.06620
N430        N  0.77447753  0.47029163  0.73802519    -0.64800
N431        N  0.71579988  0.51015552  0.74945726    -0.07320
N432        N  0.70516722  0.47217180  0.75840483    -0.64390
N433        N  0.71932989  0.56427470  0.69553957    -0.06220
N434        N  0.71464358  0.54701556  0.67251395    -0.65080
Mn435      Mn  0.67406782  0.57011201  0.75025403     1.10660
C436        C  0.66859546  0.53804398  0.67012315     0.97900
C437        C  0.74234003  0.44769778  0.75109398     0.97980
N438        N  0.87155438  0.58627070  0.74891534    -0.07330
N439        N  0.91232717  0.57480000  0.75859525    -0.62700
N440        N  0.81479764  0.61910103  0.69629896    -0.06650
N441        N  0.81887879  0.62849236  0.67172875    -0.59430
N442        N  0.83146196  0.65052027  0.71059722    -0.07960
N443        N  0.84593984  0.68191270  0.69624495    -0.62270
N444        N  0.85391316  0.55527073  0.73485467    -0.06950
N445        N  0.88277689  0.52252640  0.73416877    -0.59460
Mn446      Mn  0.83467347  0.64729590  0.75245905     1.20190
Mn447      Mn  0.78636218  0.56153485  0.71534591     1.10090
Cl448      Cl  0.75525551  0.60812366  0.75093782    -0.87430
C449        C  0.91924659  0.53479872  0.74921110     0.94910
C450        C  0.83842167  0.66806752  0.67194759     0.94700
N451        N  0.17971712  0.32657104  0.79794107    -0.07580
N452        N  0.15425119  0.30681754  0.81546664    -0.59700
N453        N  0.16065006  0.41614239  0.76893803    -0.07260
N454        N  0.13039140  0.44744224  0.77195279    -0.61830
N455        N  0.14095330  0.38388686  0.75657351    -0.06860
N456        N  0.09677493  0.39323934  0.75108668    -0.59680
N457        N  0.20259036  0.35838701  0.80881591    -0.06540
N458        N  0.19475208  0.36012624  0.83354811    -0.62180
C459        C  0.16494726  0.32787388  0.83774164     0.94600
C460        C  0.09035820  0.43322548  0.76084869     0.94370
N461        N  0.29577914  0.46091328  0.75254727    -0.07770
N462        N  0.30087148  0.49480111  0.73809583    -0.60280
N463        N  0.29705097  0.40317112  0.80696740    -0.05890
N464        N  0.30223736  0.39013878  0.83066574    -0.61530
N465        N  0.33644797  0.39853186  0.79395985    -0.07800
N466        N  0.36924345  0.38205269  0.80865798    -0.60550
N467        N  0.25676515  0.46388227  0.76596537    -0.05530
N468        N  0.23479714  0.49954788  0.76122005    -0.61620
Mn469      Mn  0.22942500  0.41142964  0.78795331     1.18440
C470        C  0.26235168  0.51864406  0.74373081     0.96680
C471        C  0.34740648  0.37745027  0.83156419     0.97340
N472        N  0.17755588  0.31494543  0.71253520    -0.07820
N473        N  0.14359481  0.30098801  0.69706197    -0.64120
N474        N  0.25714637  0.25756430  0.74204882    -0.06620
N475        N  0.27353434  0.21850319  0.74419674    -0.64800
N476        N  0.21779715  0.26178416  0.75532053    -0.07320
N477        N  0.20676471  0.22591791  0.76664677    -0.64390
N478        N  0.21804632  0.31380050  0.70014626    -0.06220
N479        N  0.21253477  0.30022844  0.67642011    -0.65080
Mn480      Mn  0.17736362  0.32128374  0.75536636     1.10660
C481        C  0.16629228  0.29266645  0.67450161     0.97900
C482        C  0.24182762  0.19915012  0.75965064     0.97980
N483        N  0.37244087  0.33897097  0.74986876    -0.07330
N484        N  0.41465358  0.32793196  0.75797538    -0.62700
N485        N  0.31239723  0.36667086  0.69732010    -0.06650
N486        N  0.31343865  0.37364867  0.67235776    -0.59430
N487        N  0.33108637  0.39915274  0.70994041    -0.07960
N488        N  0.34479929  0.42886154  0.69407299    -0.62270
N489        N  0.35305537  0.30716775  0.73720409    -0.06950
N490        N  0.38159435  0.27459656  0.73591542    -0.59460
Mn491      Mn  0.33575225  0.40059023  0.75180134     1.20190
Mn492      Mn  0.28542331  0.31088260  0.71872668     1.10090
Cl493      Cl  0.25669982  0.36109162  0.75325228    -0.87430
C494        C  0.41986094  0.28729583  0.74910029     0.94910
C495        C  0.33354292  0.41272343  0.67073351     0.94700
N496        N  0.32178468  0.88690368  0.79773439    -0.07580
N497        N  0.34487828  0.90683946  0.81657468    -0.59700
N498        N  0.34377043  0.79706074  0.76420113    -0.07260
N499        N  0.37529338  0.76600897  0.76451911    -0.61830
N500        N  0.36285333  0.83129980  0.75415931    -0.06860
N501        N  0.40721057  0.82397594  0.74751280    -0.59680
N502        N  0.30052635  0.85330817  0.80688195    -0.06540
N503        N  0.30676807  0.85051278  0.83163668    -0.62180
C504        C  0.33395626  0.88396250  0.83777425     0.94600
C505        C  0.41482492  0.78304667  0.75392174     0.94370
N506        N  0.20139944  0.75423895  0.74929971    -0.07770
N507        N  0.18917779  0.71868332  0.73708731    -0.60280
N508        N  0.20430479  0.81313344  0.80374236    -0.05890
N509        N  0.19989417  0.82749185  0.82761783    -0.61530
N510        N  0.16493539  0.81938507  0.79114166    -0.07800
N511        N  0.13329643  0.83794491  0.80633129    -0.60550
N512        N  0.24194505  0.74970947  0.76086543    -0.05530
N513        N  0.25811074  0.71090549  0.75694241    -0.61620
Mn514      Mn  0.27280581  0.80169825  0.78396021     1.18440
C515        C  0.22487170  0.69191125  0.74208698     0.96680
C516        C  0.15544299  0.84249317  0.82919742     0.97340
N517        N  0.32705049  0.89769696  0.71246031    -0.07820
N518        N  0.36323035  0.90605339  0.69723213    -0.64120
N519        N  0.24581381  0.95662939  0.74109403    -0.06620
N520        N  0.22832006  0.99522133  0.74254232    -0.64800
N521        N  0.28346120  0.95374891  0.75560146    -0.07320
N522        N  0.29170906  0.99083073  0.76729698    -0.64390
N523        N  0.28766066  0.89980449  0.69939429    -0.06220
N524        N  0.29610466  0.90971251  0.67543051    -0.65080
Mn525      Mn  0.32512539  0.89340984  0.75510692     1.10660
C526        C  0.34325012  0.91310430  0.67406963     0.97900
C527        C  0.25657636  0.01649780  0.75914324     0.97980
N528        N  0.12885366  0.87714268  0.74675767    -0.07330
N529        N  0.08477713  0.88665760  0.75263408    -0.62700
N530        N  0.19398856  0.84647386  0.69567144    -0.06650
N531        N  0.19921672  0.83699024  0.67107688    -0.59430
N532        N  0.17259779  0.81507825  0.70729784    -0.07960
N533        N  0.16249319  0.78390780  0.69092352    -0.62270
N534        N  0.14925838  0.90935854  0.73565043    -0.06950
N535        N  0.11986209  0.94159075  0.73428747    -0.59460
Mn536      Mn  0.16522882  0.81566194  0.74891080     1.20190
Mn537      Mn  0.21885664  0.90351451  0.71745742     1.10090
Cl538      Cl  0.24583820  0.85358188  0.75127662    -0.87430
C539        C  0.07941735  0.92726029  0.74488955     0.94910
C540        C  0.17928533  0.79794469  0.66835030     0.94700
N541        N  0.41680356  0.04137789  0.46385028    -0.07580
N542        N  0.40258748  0.07363967  0.45015691    -0.59700
N543        N  0.39713390  0.94345550  0.48605770    -0.07260
N544        N  0.36824577  0.91066129  0.48344013    -0.61830
N545        N  0.37797990  0.97341454  0.50048824    -0.06860
N546        N  0.33521016  0.96169302  0.50779409    -0.59680
N547        N  0.43469548  0.01136036  0.44888457    -0.06540
N548        N  0.43177422  0.02261119  0.42461578    -0.62180
C549        C  0.41177500  0.06184693  0.42557757     0.94600
C550        C  0.32984543  0.92220579  0.49721842     0.94370
N551        N  0.53523265  0.90143853  0.49877141    -0.07770
N552        N  0.54625504  0.86409026  0.50804887    -0.60280
N553        N  0.53230163  0.95872637  0.44624482    -0.05890
N554        N  0.53888342  0.94323458  0.42284948    -0.61530
N555        N  0.57265919  0.96040606  0.45865370    -0.07800
N556        N  0.60698922  0.94609948  0.44364418    -0.60550
N557        N  0.49544801  0.89888699  0.48583730    -0.05530
N558        N  0.47849274  0.86001312  0.48616449    -0.61620
Mn559      Mn  0.46462236  0.95296827  0.46615364     1.18440
C560        C  0.51033987  0.83899732  0.50005092     0.96680
C561        C  0.58546749  0.93571267  0.42131667     0.97340
N562        N  0.41869210  0.02655595  0.54778511    -0.07820
N563        N  0.38761085  0.00917103  0.56343256    -0.64120
N564        N  0.49298016  0.09881502  0.52142591    -0.06620
N565        N  0.50958606  0.13782806  0.52171103    -0.64800
N566        N  0.45185209  0.09679518  0.51017046    -0.07320
N567        N  0.43940737  0.13493204  0.50251052    -0.64390
N568        N  0.45952478  0.03067137  0.55936261    -0.06220
N569        N  0.45708805  0.01589875  0.58278284    -0.65080
Mn570      Mn  0.41459388  0.03537720  0.50582702     1.10660
C571        C  0.41207908  0.00297801  0.58535457     0.97900
C572        C  0.47589999  0.16011797  0.50997432     0.97980
N573        N  0.61031988  0.02392168  0.50322469    -0.07330
N574        N  0.65243954  0.03527738  0.49489199    -0.62700
N575        N  0.55654672  0.99114722  0.55660076    -0.06650
N576        N  0.56978752  0.99286189  0.58060708    -0.59430
N577        N  0.57936119  0.96152916  0.54365892    -0.07960
N578        N  0.61052819  0.94350885  0.55891937    -0.62270
N579        N  0.59159293  0.05459297  0.51741009    -0.06950
N580        N  0.62067284  0.08731484  0.51902927    -0.59460
Mn581      Mn  0.57545434  0.96122891  0.50096554     1.20190
Mn582      Mn  0.52498349  0.04466747  0.53883858     1.10090
Cl583      Cl  0.49507656  0.99858673  0.50275195    -0.87430
C584        C  0.65833004  0.07509103  0.50474192     0.94910
C585        C  0.60293049  0.96296278  0.58211149     0.94700
N586        N  0.41843199  0.55080085  0.46410360    -0.07580
N587        N  0.40621128  0.58454189  0.45116930    -0.59700
N588        N  0.39106799  0.45245095  0.48326583    -0.07260
N589        N  0.36141784  0.42014267  0.48099166    -0.61830
N590        N  0.37374471  0.48173022  0.49879855    -0.06860
N591        N  0.33219314  0.46968094  0.50764153    -0.59680
N592        N  0.43625526  0.52144583  0.44864698    -0.06540
N593        N  0.43579765  0.53464941  0.42468133    -0.62180
C594        C  0.41771123  0.57448441  0.42664110     0.94600
C595        C  0.32466796  0.43103531  0.49638101     0.94370
N596        N  0.52558763  0.40270299  0.49714264    -0.07770
N597        N  0.53422045  0.36401299  0.50516539    -0.60280
N598        N  0.52977755  0.46571832  0.44645163    -0.05890
N599        N  0.53751602  0.45579186  0.42212818    -0.61530
N600        N  0.56919336  0.46361501  0.45961520    -0.07800
N601        N  0.60408836  0.45149866  0.44424753    -0.60550
N602        N  0.48658744  0.40288587  0.48348865    -0.05530
N603        N  0.46769748  0.36462074  0.48242128    -0.61620
Mn604      Mn  0.46043686  0.46036103  0.46473443     1.18440
C605        C  0.49769736  0.34065122  0.49592229     0.96680
C606        C  0.58385875  0.44704097  0.42084765     0.97340
N607        N  0.41135598  0.53108542  0.54715378    -0.07820
N608        N  0.37731359  0.51482140  0.56133386    -0.64120
N609        N  0.49161987  0.60104692  0.52442097    -0.06620
N610        N  0.51034641  0.63924076  0.52537221    -0.64800
N611        N  0.45176533  0.60092655  0.51185819    -0.07320
N612        N  0.44235782  0.63935217  0.50366433    -0.64390
N613        N  0.45088863  0.53294056  0.56013955    -0.06220
N614        N  0.44456726  0.51795711  0.58335733    -0.65080
Mn615      Mn  0.41219816  0.54181880  0.50562326     1.10660
C616        C  0.39849698  0.50739368  0.58399494     0.97900
C617        C  0.47931098  0.66252253  0.51235420     0.97980
N618        N  0.60593227  0.52252253  0.50666770    -0.07330
N619        N  0.64772533  0.53386808  0.49785603    -0.62700
N620        N  0.54504652  0.48831386  0.55809406    -0.06650
N621        N  0.55407315  0.48728587  0.58262206    -0.59430
N622        N  0.56766852  0.45840821  0.54529297    -0.07960
N623        N  0.59467220  0.43736659  0.56147565    -0.62270
N624        N  0.58831907  0.55288319  0.52150013    -0.06950
N625        N  0.61835352  0.58500518  0.52330135    -0.59460
Mn626      Mn  0.56853750  0.46096583  0.50220978     1.20190
Mn627      Mn  0.51911501  0.54462551  0.54125976     1.10090
Cl628      Cl  0.49044731  0.50171229  0.50323589    -0.87430
C629        C  0.65540774  0.57307281  0.50833131     0.94910
C630        C  0.58473215  0.45552228  0.58488396     0.94700
N631        N  0.91685122  0.29717818  0.46406386    -0.07580
N632        N  0.90765788  0.33075292  0.45012960    -0.59700
N633        N  0.89334429  0.19964345  0.48594163    -0.07260
N634        N  0.86442675  0.16674687  0.48435976    -0.61830
N635        N  0.87490550  0.22985978  0.50038755    -0.06860
N636        N  0.83302340  0.21837914  0.50894459    -0.59680
N637        N  0.93610604  0.26714019  0.44971314    -0.06540
N638        N  0.93996910  0.27983954  0.42585909    -0.62180
C639        C  0.92244214  0.31983980  0.42614916     0.94600
C640        C  0.82697730  0.17883535  0.49883557     0.94370
N641        N  0.02830863  0.15319481  0.49977801    -0.07770
N642        N  0.03894787  0.11418323  0.50649496    -0.60280
N643        N  0.03054391  0.21184877  0.44750877    -0.05890
N644        N  0.03728118  0.19488647  0.42444541    -0.61530
N645        N  0.06996692  0.21080001  0.46070462    -0.07800
N646        N  0.10314562  0.19229871  0.44661358    -0.60550
N647        N  0.98985135  0.15253072  0.48576421    -0.05530
N648        N  0.97417311  0.11358536  0.48271840    -0.61620
Mn649      Mn  0.96192576  0.20782354  0.46668126     1.18440
C650        C  0.00481857  0.08963394  0.49555381     0.96680
C651        C  0.08260692  0.18242177  0.42387132     0.97340
N652        N  0.91294568  0.28051955  0.54795831    -0.07820
N653        N  0.88110187  0.26214536  0.56271394    -0.64120
N654        N  0.98991573  0.35153778  0.52344560    -0.06620
N655        N  0.00735653  0.39018137  0.52399344    -0.64800
N656        N  0.94984835  0.35005832  0.51111181    -0.07320
N657        N  0.93901730  0.38790336  0.50257494    -0.64390
N658        N  0.95296969  0.28443432  0.56035653    -0.06220
N659        N  0.94926405  0.26913177  0.58360122    -0.65080
Mn660      Mn  0.91172487  0.29030391  0.50602368     1.10660
C661        C  0.90440208  0.25560210  0.58494282     0.97900
C662        C  0.97529000  0.41218703  0.51092966     0.97980
N663        N  0.10596623  0.27509022  0.50596581    -0.07330
N664        N  0.14749733  0.28706852  0.49705708    -0.62700
N665        N  0.04680126  0.24163605  0.55864844    -0.06650
N666        N  0.05716646  0.24298993  0.58303937    -0.59430
N667        N  0.07161614  0.21281943  0.54623011    -0.07960
N668        N  0.10219863  0.19593551  0.56234019    -0.62270
N669        N  0.08742275  0.30565380  0.52029305    -0.06950
N670        N  0.11629495  0.33862136  0.52155544    -0.59460
Mn671      Mn  0.07028629  0.21239260  0.50325324     1.20190
Mn672      Mn  0.01943367  0.29667038  0.54084822     1.10090
Cl673      Cl  0.99110115  0.25177627  0.50400338    -0.87430
C674        C  0.15374723  0.32696793  0.50687794     0.94910
C675        C  0.09163215  0.21463003  0.58548720     0.94700
N676        N  0.91951655  0.79123130  0.45963686    -0.07580
N677        N  0.90673797  0.82314471  0.44518987    -0.59700
N678        N  0.89548201  0.69429865  0.48219306    -0.07260
N679        N  0.86553629  0.66213076  0.48044128    -0.61830
N680        N  0.87787972  0.72480441  0.49671869    -0.06860
N681        N  0.83605088  0.71360901  0.50553573    -0.59680
N682        N  0.93711067  0.76018913  0.44537549    -0.06540
N683        N  0.93663047  0.77009776  0.42094117    -0.62180
C684        C  0.91793800  0.80947951  0.42117975     0.94600
C685        C  0.82843859  0.67425588  0.49526796     0.94370
N686        N  0.03337175  0.64917804  0.49504975    -0.07770
N687        N  0.04312566  0.61151979  0.50424883    -0.60280
N688        N  0.03094252  0.70917962  0.44301071    -0.05890
N689        N  0.03611985  0.69945448  0.41854605    -0.61530
N690        N  0.07171628  0.70817606  0.45488930    -0.07800
N691        N  0.10515255  0.69649765  0.43846313    -0.60550
N692        N  0.99351386  0.64771742  0.48210885    -0.05530
N693        N  0.97537606  0.60931809  0.48224688    -0.61620
Mn694      Mn  0.96389588  0.70228394  0.46266283     1.18440
C695        C  0.00649098  0.58746400  0.49608088     0.96680
C696        C  0.08227740  0.69149282  0.41582331     0.97340
N697        N  0.91664186  0.77696363  0.54348892    -0.07820
N698        N  0.88255518  0.76378919  0.55880033    -0.64120
N699        N  0.99508247  0.84531579  0.51982206    -0.06620
N700        N  0.01264567  0.88377675  0.52184602    -0.64800
N701        N  0.95610465  0.84503506  0.50659102    -0.07320
N702        N  0.94709018  0.88371433  0.49871402    -0.64390
N703        N  0.95693203  0.77765002  0.55571861    -0.06220
N704        N  0.95117343  0.76464464  0.57937393    -0.65080
Mn705      Mn  0.91585050  0.78561470  0.50164652     1.10660
C706        C  0.90458614  0.75650345  0.58130608     0.97900
C707        C  0.98271872  0.90775853  0.50856998     0.97980
N708        N  0.11081193  0.76958099  0.49999697    -0.07330
N709        N  0.15271925  0.78112584  0.49142550    -0.62700
N710        N  0.05099645  0.73278017  0.55336338    -0.06650
N711        N  0.06374267  0.73664545  0.57738206    -0.59430
N712        N  0.08036059  0.70853514  0.54035154    -0.07960
N713        N  0.11694812  0.69982410  0.55523531    -0.62270
N714        N  0.09177417  0.80005707  0.51418160    -0.06950
N715        N  0.12008752  0.83358309  0.51483486    -0.59460
Mn716      Mn  0.07543783  0.70792010  0.49742089     1.20190
Mn717      Mn  0.02396258  0.78940559  0.53605365     1.10090
Cl718      Cl  0.99485006  0.74633060  0.49931420    -0.87430
C719        C  0.15797577  0.82133292  0.50069359     0.94910
C720        C  0.10553276  0.71743029  0.57855765     0.94700
C721        C  0.00117527  0.47036854  0.48355970    -0.03310
C722        C  0.98036232  0.45706526  0.50649402     0.06370
C723        C  0.97016268  0.48607743  0.52654161    -0.03420
C724        C  0.98037880  0.52915056  0.52349072    -0.03420
C725        C  0.00116153  0.54251347  0.50054323     0.06500
C726        C  0.01178500  0.51336201  0.48060818    -0.03620
Br727      Br  0.04181363  0.53221190  0.44962368    -0.02170
Br728      Br  0.01625362  0.42951629  0.45666203    -0.02240
Br729      Br  0.96537267  0.56989741  0.55039362    -0.02200
Br730      Br  0.94221651  0.46658813  0.55801270    -0.02180
C731        C  0.95819239  0.02156380  0.49032560    -0.03310
C732        C  0.00094341  0.04254228  0.49699904     0.06370
C733        C  0.03913398  0.01804699  0.50567609    -0.03420
C734        C  0.03338557  0.97424574  0.50970345    -0.03420
C735        C  0.98906065  0.95421758  0.50513989     0.06500
C736        C  0.95114150  0.97890100  0.49648400    -0.03620
Br737      Br  0.88720883  0.95703508  0.49536314    -0.02170
Br738      Br  0.90928982  0.04775157  0.47022911    -0.02240
Br739      Br  0.08779334  0.94372469  0.52204552    -0.02200
Br740      Br  0.10164661  0.04240421  0.50960136    -0.02180
C741        C  0.24255409  0.33428961  0.50145499    -0.03310
C742        C  0.19757508  0.35349492  0.50383979     0.06370
C743        C  0.19497165  0.39853207  0.50422285    -0.03420
C744        C  0.23619510  0.42368097  0.50236327    -0.03420
C745        C  0.28102103  0.40446545  0.49963723     0.06500
C746        C  0.28373279  0.35949184  0.49945051    -0.03620
Br747      Br  0.34425125  0.33138515  0.49826807    -0.02170
Br748      Br  0.24953077  0.27316843  0.50217704    -0.02240
Br749      Br  0.22976665  0.48488192  0.50259126    -0.02200
Br750      Br  0.13471591  0.42705618  0.50577393    -0.02180
C751        C  0.74394943  0.57891777  0.50067549    -0.03310
C752        C  0.69975638  0.59893897  0.50482900     0.06370
C753        C  0.69846357  0.64402185  0.50590214    -0.03420
C754        C  0.74004242  0.66838980  0.50286257    -0.03420
C755        C  0.78422226  0.64836599  0.49887413     0.06500
C756        C  0.78563560  0.60329471  0.49799664    -0.03620
Br757      Br  0.84503351  0.57359262  0.49462476    -0.02170
Br758      Br  0.74932225  0.51759370  0.49961199    -0.02240
Br759      Br  0.73456581  0.72971450  0.50293584    -0.02200
Br760      Br  0.63941165  0.67386592  0.51012921    -0.02180
C761        C  0.20326648  0.88544379  0.48625595    -0.03310
C762        C  0.20238667  0.84638810  0.49901539     0.06370
C763        C  0.24399559  0.83160207  0.51050793    -0.03420
C764        C  0.28579697  0.85595808  0.50946360    -0.03420
C765        C  0.28584781  0.89636298  0.49816697     0.06500
C766        C  0.24444692  0.91076275  0.48630611    -0.03620
Br767      Br  0.24502126  0.96392171  0.46854414    -0.02170
Br768      Br  0.14923670  0.90229896  0.46675226    -0.02240
Br769      Br  0.34304839  0.83369810  0.52350491    -0.02200
Br770      Br  0.24358895  0.77851150  0.52846054    -0.02180
C771        C  0.52371131  0.76481530  0.48592447    -0.03310
C772        C  0.50653641  0.79376286  0.50454837     0.06370
C773        C  0.47994952  0.77974001  0.52552210    -0.03420
C774        C  0.46882670  0.73654836  0.52735272    -0.03420
C775        C  0.48567057  0.70768504  0.50861682     0.06500
C776        C  0.51353330  0.72149654  0.48807427    -0.03620
Br777      Br  0.53725998  0.68105750  0.46291584    -0.02170
Br778      Br  0.56099479  0.78458958  0.45756436    -0.02240
Br779      Br  0.43026938  0.71676430  0.55525002    -0.02200
Br780      Br  0.45968680  0.81967938  0.55180459    -0.02180
C781        C  0.49412907  0.23286816  0.52720712    -0.03310
C782        C  0.47903994  0.20643103  0.50658557     0.06370
C783        C  0.47025332  0.22404766  0.48247183    -0.03420
C784        C  0.47643157  0.26790568  0.47895573    -0.03420
C785        C  0.49157327  0.29446384  0.49957365     0.06500
C786        C  0.50042295  0.27667922  0.52371875    -0.03620
Br787      Br  0.51931766  0.31207167  0.55267843    -0.02170
Br788      Br  0.50473265  0.20975754  0.56082211    -0.02240
Br789      Br  0.46721746  0.29028925  0.44512123    -0.02200
Br790      Br  0.45337070  0.18779467  0.45354268    -0.02180
C791        C  0.69837862  0.14478791  0.49669622    -0.03310
C792        C  0.70182904  0.10113672  0.50226976     0.06370
C793        C  0.74664120  0.08361708  0.50713496    -0.03420
C794        C  0.78662924  0.11013282  0.50830869    -0.03420
C795        C  0.78351164  0.15306030  0.50144763     0.06500
C796        C  0.73916241  0.17035338  0.49564218    -0.03620
Br797      Br  0.73401027  0.22868919  0.48526184    -0.02170
Br798      Br  0.63810242  0.16932416  0.48864181    -0.02240
Br799      Br  0.84448020  0.08897764  0.52244242    -0.02200
Br800      Br  0.75472273  0.02348718  0.51200529    -0.02180
C801        C  0.35245925  0.91925685  0.62659411    -0.03310
C802        C  0.36667712  0.93218514  0.65150190     0.06370
C803        C  0.39663249  0.96783361  0.65450873    -0.03420
C804        C  0.41052236  0.99126788  0.63295916    -0.03420
C805        C  0.39507596  0.97916705  0.60805372     0.06500
C806        C  0.36651989  0.94249873  0.60501498    -0.03620
Br807      Br  0.34756750  0.92225858  0.57140387    -0.02170
Br808      Br  0.31419411  0.86869820  0.62181327    -0.02240
Br809      Br  0.44822126  0.04197348  0.63829421    -0.02200
Br810      Br  0.41642533  0.98712805  0.68821529    -0.02180
C811        C  0.15353879  0.80077086  0.62296520    -0.03310
C812        C  0.17011330  0.77645144  0.64333139     0.06370
C813        C  0.17406692  0.73174566  0.64003786    -0.03420
C814        C  0.15779305  0.71143634  0.61725387    -0.03420
C815        C  0.13943387  0.73582084  0.59738599     0.06500
C816        C  0.14107798  0.78076980  0.59979301    -0.03620
Br817      Br  0.12153275  0.81631568  0.57227931    -0.02170
Br818      Br  0.13924985  0.86073779  0.62769833    -0.02240
Br819      Br  0.15786615  0.65045076  0.61370622    -0.02200
Br820      Br  0.20021782  0.69801679  0.66686065    -0.02180
C821        C  0.39301724  0.43967286  0.60789130    -0.03310
C822        C  0.37758972  0.48173614  0.60454277     0.06370
C823        C  0.34454212  0.49971182  0.62168018    -0.03420
C824        C  0.32834069  0.47629965  0.64274867    -0.03420
C825        C  0.34507347  0.43470943  0.64667302     0.06500
C826        C  0.37702359  0.41628898  0.62898212    -0.03620
Br827      Br  0.40216289  0.36043429  0.63475424    -0.02170
Br828      Br  0.43638229  0.41410921  0.58353805    -0.02240
Br829      Br  0.28325860  0.50138777  0.66627716    -0.02200
Br830      Br  0.32340094  0.55717748  0.61691622    -0.02180
C831        C  0.11695188  0.20588106  0.63042595    -0.03310
C832        C  0.12507986  0.22382753  0.60632159     0.06370
C833        C  0.14857626  0.26335796  0.60504003    -0.03420
C834        C  0.15759984  0.28727930  0.62747324    -0.03420
C835        C  0.14747221  0.27024616  0.65163963     0.06500
C836        C  0.12928356  0.22851886  0.65308448    -0.03620
Br837      Br  0.12266170  0.20178156  0.68578202    -0.02170
Br838      Br  0.08761065  0.15078438  0.63202102    -0.02240
Br839      Br  0.18062335  0.34502458  0.62501353    -0.02200
Br840      Br  0.16361022  0.28709730  0.57216856    -0.02180
C841        C  0.28525770  0.59045024  0.72595803    -0.03310
C842        C  0.25055911  0.56081590  0.73322582     0.06370
C843        C  0.20300677  0.57402228  0.73343771    -0.03420
C844        C  0.19220470  0.61760398  0.73523730    -0.03420
C845        C  0.22874149  0.64740317  0.73272145     0.06500
C846        C  0.27245565  0.63323827  0.72370178    -0.03620
Br847      Br  0.30913058  0.67159607  0.70396256    -0.02170
Br848      Br  0.34995557  0.57481374  0.72037078    -0.02240
Br849      Br  0.12856149  0.63564073  0.74154713    -0.02200
Br850      Br  0.15356321  0.53285035  0.72815095    -0.02180
C851        C  0.28302661  0.13394498  0.77476901    -0.03310
C852        C  0.24227127  0.15293624  0.76507603     0.06370
C853        C  0.20291122  0.12711476  0.75944538    -0.03420
C854        C  0.20639208  0.08255649  0.76074630    -0.03420
C855        C  0.25061441  0.06305036  0.76519778     0.06500
C856        C  0.28852490  0.08934894  0.77353064    -0.03620
Br857      Br  0.34894474  0.06626506  0.78239924    -0.02170
Br858      Br  0.32831563  0.16916254  0.79268020    -0.02240
Br859      Br  0.14905717  0.04936296  0.75776944    -0.02200
Br860      Br  0.14416749  0.15212752  0.74910619    -0.02180
C861        C  0.60853650  0.48470235  0.65203446    -0.03310
C862        C  0.64990047  0.50968839  0.64883192     0.06370
C863        C  0.67554875  0.50489823  0.62533538    -0.03420
C864        C  0.65888902  0.47781629  0.60543786    -0.03420
C865        C  0.61514746  0.45727937  0.60777329     0.06500
C866        C  0.59186928  0.45858926  0.63166726    -0.03620
Br867      Br  0.53351975  0.42746093  0.63514442    -0.02170
Br868      Br  0.57195726  0.48633103  0.68338795    -0.02240
Br869      Br  0.69350791  0.47279327  0.57351003    -0.02200
Br870      Br  0.73108304  0.53839610  0.61798540    -0.02180
C871        C  0.88880088  0.72400840  0.65051064    -0.03310
C872        C  0.85256077  0.69277873  0.64879826     0.06370
C873        C  0.83004283  0.68598532  0.62484785    -0.03420
C874        C  0.84652997  0.70654802  0.60266608    -0.03420
C875        C  0.88280772  0.73740998  0.60452498     0.06500
C876        C  0.90158744  0.74765696  0.62891495    -0.03620
Br877      Br  0.94365820  0.79586140  0.63344237    -0.02170
Br878      Br  0.92498072  0.73379555  0.68151342    -0.02240
Br879      Br  0.82047392  0.68970369  0.56980686    -0.02200
Br880      Br  0.77474623  0.65037434  0.62200180    -0.02180
C881        C  0.00504659  0.52743280  0.76153131    -0.03310
C882        C  0.96201866  0.50822426  0.75398869     0.06370
C883        C  0.96020237  0.46323682  0.75146480    -0.03420
C884        C  0.00155875  0.43865081  0.75371262    -0.03420
C885        C  0.04504029  0.45817482  0.76050181     0.06500
C886        C  0.04456302  0.50232293  0.76703575    -0.03620
Br887      Br  0.09458386  0.52972901  0.78647010    -0.02170
Br888      Br  0.01286995  0.58863278  0.76282084    -0.02240
Br889      Br  0.99588641  0.37755599  0.74974683    -0.02200
Br890      Br  0.90083380  0.43375018  0.74642790    -0.02180
C891        C  0.54662846  0.75527932  0.76073205    -0.03310
C892        C  0.54759831  0.71182289  0.75215741     0.06370
C893        C  0.50534728  0.69469461  0.74160822    -0.03420
C894        C  0.46432189  0.71977532  0.74031831    -0.03420
C895        C  0.46170197  0.76048613  0.75172592     0.06500
C896        C  0.50399362  0.77890117  0.76084728    -0.03620
Br897      Br  0.50434705  0.83725729  0.77280522    -0.02170
Br898      Br  0.60321692  0.78477242  0.77156219    -0.02240
Br899      Br  0.41453937  0.70165289  0.71839048    -0.02200
Br900      Br  0.50050122  0.63653489  0.72904237    -0.02180
C901        C  0.68531193  0.01964206  0.62513989    -0.03310
C902        C  0.66268632  0.01165622  0.64885629     0.06370
C903        C  0.63132429  0.97598782  0.65012805    -0.03420
C904        C  0.61883985  0.95324076  0.62760730    -0.03420
C905        C  0.63583728  0.96595581  0.60374890     0.06500
C906        C  0.67117165  0.99732096  0.60275123    -0.03620
Br907      Br  0.69482027  0.01423596  0.56989387    -0.02170
Br908      Br  0.73501769  0.06143041  0.62228971    -0.02240
Br909      Br  0.57320133  0.90755312  0.62843814    -0.02200
Br910      Br  0.60064930  0.95839429  0.68146871    -0.02180
C911        C  0.84588767  0.24536978  0.61997747    -0.03310
C912        C  0.88603146  0.23113460  0.60670750     0.06370
C913        C  0.90972678  0.19436879  0.61487926    -0.03420
C914        C  0.89409557  0.17282348  0.63681167    -0.03420
C915        C  0.85385661  0.18705363  0.65017494     0.06500
C916        C  0.82899291  0.22287194  0.64116231    -0.03620
Br917      Br  0.77128945  0.24209017  0.65725385    -0.02170
Br918      Br  0.81544126  0.29721914  0.60987532    -0.02240
Br919      Br  0.92557015  0.12192903  0.64738788    -0.02200
Br920      Br  0.96169490  0.17161048  0.59507457    -0.02180
C921        C  0.98383141  0.00992520  0.73097597    -0.03310
C922        C  0.95122960  0.00314027  0.75106113     0.06370
C923        C  0.96034004  0.97031112  0.76865112    -0.03420
C924        C  0.00033608  0.94413685  0.76574302    -0.03420
C925        C  0.03445262  0.95238183  0.74650612     0.06500
C926        C  0.02526796  0.98530608  0.72889450    -0.03620
Br927      Br  0.06683113  0.99572398  0.70014318    -0.02170
Br928      Br  0.97123713  0.05153537  0.70503795    -0.02240
Br929      Br  0.00637267  0.89670800  0.78859754    -0.02200
Br930      Br  0.92043096  0.96191128  0.79841290    -0.02180
C931        C  0.71673773  0.87718382  0.76612937    -0.03310
C932        C  0.72911253  0.89774316  0.74349662     0.06370
C933        C  0.75371062  0.87620776  0.72381856    -0.03420
C934        C  0.76611467  0.83337604  0.72682113    -0.03420
C935        C  0.75599350  0.81334219  0.75022669     0.06500
C936        C  0.73248996  0.83603576  0.77018342    -0.03620
Br937      Br  0.72626901  0.81377253  0.80445995    -0.02170
Br938      Br  0.68081488  0.90694871  0.79250226    -0.02240
Br939      Br  0.79654407  0.80297378  0.69892520    -0.02200
Br940      Br  0.77124680  0.90619988  0.69331269    -0.02180
C941        C  0.77372191  0.33361389  0.73520942    -0.03310
C942        C  0.75822833  0.31239252  0.75708174     0.06370
C943        C  0.73828481  0.33555740  0.77773620    -0.03420
C944        C  0.73314170  0.38008423  0.77618991    -0.03420
C945        C  0.74566100  0.40093457  0.75333772     0.06500
C946        C  0.76471767  0.37695249  0.73253887    -0.03620
Br947      Br  0.77406943  0.40123455  0.69903737    -0.02170
Br948      Br  0.80947252  0.30342598  0.70925555    -0.02240
Br949      Br  0.71033521  0.41207432  0.80557463    -0.02200
Br950      Br  0.71889171  0.30612807  0.80808298    -0.02180
C951        C  0.45812097  0.21483904  0.74932973    -0.03310
C952        C  0.46217546  0.25987039  0.75213160     0.06370
C953        C  0.50727560  0.27798076  0.75647867    -0.03420
C954        C  0.54701932  0.25164252  0.75842307    -0.03420
C955        C  0.54264273  0.20711590  0.75532858     0.06500
C956        C  0.49792762  0.18881193  0.75132962    -0.03620
Br957      Br  0.49062645  0.12785743  0.74634371    -0.02170
Br958      Br  0.39941166  0.18647826  0.74088351    -0.02240
Br959      Br  0.60782949  0.27711927  0.76550514    -0.02200
Br960      Br  0.51722631  0.33888168  0.75678415    -0.02180
C961        C  0.93296739  0.57162937  0.87868958    -0.03310
C962        C  0.90275076  0.55576745  0.89760961     0.06370
C963        C  0.85390442  0.56004027  0.89513127    -0.03420
C964        C  0.83483434  0.58129194  0.87414200    -0.03420
C965        C  0.86495561  0.59866653  0.85497034     0.06500
C966        C  0.91448587  0.59336460  0.85756190    -0.03620
Br967      Br  0.95875877  0.61733630  0.83353910    -0.02170
Br968      Br  0.00007562  0.56478450  0.88247644    -0.02240
Br969      Br  0.76687416  0.58459527  0.87301351    -0.02200
Br970      Br  0.81271636  0.53501926  0.92051788    -0.02180
C971        C  0.14056159  0.35740018  0.90438317    -0.03310
C972        C  0.10688594  0.38950358  0.89998204     0.06370
C973        C  0.08381068  0.39042813  0.87592898    -0.03420
C974        C  0.09556959  0.36086295  0.85646935    -0.03420
C975        C  0.13343382  0.33291369  0.85983731     0.06500
C976        C  0.15367267  0.32941929  0.88423036    -0.03620
Br977      Br  0.20175507  0.28750944  0.88919536    -0.02170
Br978      Br  0.16977384  0.35089738  0.93746090    -0.02240
Br979      Br  0.06414905  0.36269726  0.82367660    -0.02200
Br980      Br  0.03962816  0.43497484  0.86794193    -0.02180
C981        C  0.91832724  0.12534447  0.89039893    -0.03310
C982        C  0.89119818  0.09752771  0.90594872     0.06370
C983        C  0.84187286  0.09685239  0.90277127    -0.03420
C984        C  0.82113686  0.12139923  0.88372672    -0.03420
C985        C  0.84910245  0.14038838  0.86458136     0.06500
C986        C  0.89756464  0.14519055  0.86909731    -0.03620
Br987      Br  0.93555910  0.17778588  0.84590374    -0.02170
Br988      Br  0.98335146  0.13805221  0.89807037    -0.02240
Br989      Br  0.75352090  0.12580419  0.88243285    -0.02200
Br990      Br  0.80180096  0.05852312  0.92166216    -0.02180
C991        C  0.09673812  0.92885753  0.87133132    -0.03310
C992        C  0.10555352  0.91429588  0.89654215     0.06370
C993        C  0.13065745  0.87509034  0.89885194    -0.03420
C994        C  0.14427777  0.85112780  0.87685202    -0.03420
C995        C  0.13678268  0.86663900  0.85208364     0.06500
C996        C  0.11449264  0.90638448  0.84955383    -0.03620
Br997      Br  0.11332402  0.93312675  0.81653984    -0.02170
Br998      Br  0.05993444  0.97923167  0.86538251    -0.02240
Br999      Br  0.17308575  0.79589965  0.88079529    -0.02200
Br1000     Br  0.14950387  0.85222687  0.93154098    -0.02180
C1001       C  0.96014817  0.72790188  0.98703397    -0.03310
C1002       C  0.99863340  0.70059413  0.99141902     0.06370
C1003       C  0.04477515  0.71834136  0.99177364    -0.03420
C1004       C  0.05167129  0.76257092  0.99164175    -0.03420
C1005       C  0.01279928  0.78975751  0.98959938     0.06500
C1006       C  0.96774109  0.77208481  0.98513137    -0.03620
Br1007     Br  0.91666749  0.80852886  0.97528665    -0.02170
Br1008     Br  0.89633657  0.70671466  0.98569851    -0.02240
Br1009     Br  0.11460529  0.78515596  0.99636048    -0.02200
Br1010     Br  0.10017854  0.68321416  0.99264341    -0.02180
C1011       C  0.97686924  0.23140150  0.99160063    -0.03310
C1012       C  0.99716855  0.20568133  0.01029608     0.06370
C1013       C  0.03093314  0.22317749  0.02718037    -0.03420
C1014       C  0.04675458  0.26539328  0.02424745    -0.03420
C1015       C  0.02983023  0.28984987  0.00382872     0.06500
C1016       C  0.99434332  0.27272802  0.98773043    -0.03620
Br1017     Br  0.97512529  0.30277125  0.95760597    -0.02170
Br1018     Br  0.92916281  0.20781626  0.96915809    -0.02240
Br1019     Br  0.09677878  0.28706056  0.04577312    -0.02200
Br1020     Br  0.05908165  0.18746092  0.05250347    -0.02180
C1021       C  0.56644337  0.61423141  0.88931874    -0.03310
C1022       C  0.58395857  0.65500445  0.89610313     0.06370
C1023       C  0.61177144  0.67698599  0.87837483    -0.03420
C1024       C  0.62378093  0.65760439  0.85486172    -0.03420
C1025       C  0.61394919  0.61378298  0.85014842     0.06500
C1026       C  0.58338302  0.59269486  0.86700960    -0.03620
Br1027     Br  0.56611130  0.53452387  0.85997113    -0.02170
Br1028     Br  0.51645950  0.58996029  0.90918700    -0.02240
Br1029     Br  0.65434739  0.69232807  0.82943022    -0.02200
Br1030     Br  0.63704700  0.73278889  0.88683361    -0.02180
C1031       C  0.40531648  0.86159700  0.85971848    -0.03310
C1032       C  0.36135485  0.88146924  0.86161899     0.06370
C1033       C  0.33606753  0.87942774  0.88481725    -0.03420
C1034       C  0.35275766  0.85501820  0.90532285    -0.03420
C1035       C  0.39433035  0.83032562  0.90223837     0.06500
C1036       C  0.42024925  0.83386625  0.87887394    -0.03620
Br1037     Br  0.47298518  0.79718853  0.87034235    -0.02170
Br1038     Br  0.44276348  0.86879050  0.82918431    -0.02240
Br1039     Br  0.31635489  0.85539824  0.93667553    -0.02200
Br1040     Br  0.27618660  0.90809220  0.88731650    -0.02180
C1041       C  0.25762046  0.56924356  0.00839602    -0.03310
C1042       C  0.21922516  0.58490793  0.99459850     0.06370
C1043       C  0.22574291  0.62074479  0.97942910    -0.03420
C1044       C  0.26745250  0.64520555  0.98136976    -0.03420
C1045       C  0.30511575  0.63204128  0.99741804     0.06500
C1046       C  0.30056483  0.59193674  0.00952494    -0.03620
Br1047     Br  0.35194074  0.56570194  0.02760612    -0.02170
Br1048     Br  0.25151370  0.51577173  0.02552001    -0.02240
Br1049     Br  0.27098005  0.69589945  0.96106361    -0.02200
Br1050     Br  0.17963938  0.63267126  0.95353635    -0.02180
C1051       C  0.75621743  0.82630530  0.00714949    -0.03310
C1052       C  0.71305426  0.84365345  0.99881858     0.06370
C1053       C  0.71175954  0.88787515  0.99365319    -0.03420
C1054       C  0.75322348  0.91306998  0.99479677    -0.03420
C1055       C  0.79657521  0.89552070  0.00301287     0.06500
C1056       C  0.79602776  0.85252438  0.01121191    -0.03620
Br1057     Br  0.84682412  0.82817582  0.03080589    -0.02170
Br1058     Br  0.76389069  0.76572833  0.01189432    -0.02240
Br1059     Br  0.74774690  0.97262166  0.98649080    -0.02200
Br1060     Br  0.65308761  0.91613994  0.98601141    -0.02180
C1061       C  0.63251743  0.17483093  0.87866433    -0.03310
C1062       C  0.60356315  0.15495787  0.89691763     0.06370
C1063       C  0.58785781  0.11286526  0.89263972    -0.03420
C1064       C  0.60268389  0.09009073  0.87062565    -0.03420
C1065       C  0.63299288  0.10944557  0.85298091     0.06500
C1066       C  0.64659155  0.15224145  0.85648041    -0.03620
Br1067     Br  0.68518300  0.17972334  0.83099825    -0.02170
Br1068     Br  0.65626030  0.23169546  0.88488255    -0.02240
Br1069     Br  0.58203000  0.03235976  0.86460496    -0.02200
Br1070     Br  0.54517652  0.08674570  0.91656456    -0.02180
C1071       C  0.42498151  0.34882677  0.88736771    -0.03310
C1072       C  0.40136566  0.31270984  0.89713027     0.06370
C1073       C  0.36134186  0.29677858  0.88428980    -0.03420
C1074       C  0.34496381  0.31687753  0.86208888    -0.03420
C1075       C  0.36715358  0.35418729  0.85335044     0.06500
C1076       C  0.40756143  0.36965823  0.86578449    -0.03620
Br1077     Br  0.43844450  0.42021756  0.85350889    -0.02170
Br1078     Br  0.48085428  0.37135339  0.90352905    -0.02240
Br1079     Br  0.29517968  0.29094443  0.84211724    -0.02200
Br1080     Br  0.33075552  0.24603130  0.89621535    -0.02180
C1081       C  0.21887871  0.13519815  0.98979960    -0.03310
C1082       C  0.21186879  0.09772508  0.00412182     0.06370
C1083       C  0.24889395  0.08367602  0.01992536    -0.03420
C1084       C  0.29343109  0.10362791  0.01929216    -0.03420
C1085       C  0.30131142  0.13969603  0.00374046     0.06500
C1086       C  0.26364419  0.15441311  0.98850220    -0.03620
Br1087     Br  0.27232186  0.19889308  0.96359415    -0.02170
Br1088     Br  0.16750505  0.16392423  0.97293176    -0.02240
Br1089     Br  0.34276599  0.07880617  0.03972796    -0.02200
Br1090     Br  0.23848305  0.03967091  0.04490290    -0.02180
C1091       C  0.50287664  0.46389818  0.02876578    -0.03310
C1092       C  0.50747769  0.44416915  0.00444857     0.06370
C1093       C  0.52483579  0.46754384  0.98353056    -0.03420
C1094       C  0.53894215  0.50979219  0.98705760    -0.03420
C1095       C  0.53069572  0.53050274  0.01070662     0.06500
C1096       C  0.51381177  0.50727449  0.03180740    -0.03620
Br1097     Br  0.50890305  0.53394768  0.06540573    -0.02170
Br1098     Br  0.48365428  0.43151572  0.05811145    -0.02240
Br1099     Br  0.56944418  0.53856538  0.95917908    -0.02200
Br1100     Br  0.52570053  0.44370715  0.94914116    -0.02180
C1101       C  0.48125256  0.01431903  0.98734570    -0.03310
C1102       C  0.51949619  0.03103447  0.00137616     0.06370
C1103       C  0.54595303  0.00504999  0.01747145    -0.03420
C1104       C  0.53425771  0.96201681  0.01940598    -0.03420
C1105       C  0.49662617  0.94518116  0.00503397     0.06500
C1106       C  0.47015057  0.97108280  0.98890472    -0.03620
Br1107     Br  0.42021518  0.94698838  0.96816384    -0.02170
Br1108     Br  0.44427247  0.05079461  0.96599146    -0.02240
Br1109     Br  0.56893999  0.92594612  0.04208891    -0.02200
Br1110     Br  0.59647274  0.02879337  0.03784975    -0.02180
C1111       C  0.71389149  0.38122852  0.01117645    -0.03310
C1112       C  0.71494821  0.33912176  0.00158898     0.06370
C1113       C  0.75729069  0.32186680  0.99234971    -0.03420
C1114       C  0.79902181  0.34600212  0.99320220    -0.03420
C1115       C  0.79876440  0.38908194  0.00261278     0.06500
C1116       C  0.75542303  0.40607283  0.01197629    -0.03620
Br1117     Br  0.75053786  0.46324908  0.02594930    -0.02170
Br1118     Br  0.65487488  0.40510681  0.02303985    -0.02240
Br1119     Br  0.85510338  0.31706566  0.98102447    -0.02200
Br1120     Br  0.75720286  0.26588311  0.97598404    -0.02180
C1121       C  0.36155807  0.75390017  0.15286764    -0.03310
C1122       C  0.34985961  0.71023859  0.15073213     0.06370
C1123       C  0.34549273  0.69125099  0.12622460    -0.03420
C1124       C  0.35368115  0.71511093  0.10419431    -0.03420
C1125       C  0.37098826  0.75719290  0.10624505     0.06500
C1126       C  0.37359396  0.77687044  0.13067344    -0.03620
Br1127     Br  0.39438944  0.83502642  0.13333981    -0.02170
Br1128     Br  0.35939381  0.78259918  0.18582346    -0.02240
Br1129     Br  0.34516758  0.68852453  0.07092275    -0.02200
Br1130     Br  0.33150980  0.63125638  0.12284349    -0.02180
C1131       C  0.11209732  0.50033292  0.14744720    -0.03310
C1132       C  0.15562191  0.52267358  0.14749104     0.06370
C1133       C  0.18984324  0.51146822  0.12886455    -0.03420
C1134       C  0.17849131  0.48204428  0.10892306    -0.03420
C1135       C  0.13312850  0.46414405  0.10732483     0.06500
C1136       C  0.10243236  0.46954860  0.12830597    -0.03620
Br1137     Br  0.04275274  0.43982246  0.12783123    -0.02170
Br1138     Br  0.06236825  0.51469000  0.17155355    -0.02240
Br1139     Br  0.22406517  0.46653756  0.08325081    -0.02200
Br1140     Br  0.25201862  0.53570674  0.13065105    -0.02180
C1141       C  0.32647650  0.61615972  0.38175150    -0.03310
C1142       C  0.35374907  0.63686585  0.36269804     0.06370
C1143       C  0.40263187  0.64174033  0.36686689    -0.03420
C1144       C  0.42400996  0.62252776  0.38828856    -0.03420
C1145       C  0.39697604  0.59722813  0.40491201     0.06500
C1146       C  0.34814410  0.59464722  0.40172854    -0.03620
Br1147     Br  0.31097494  0.55790810  0.42346044    -0.02170
Br1148     Br  0.25868213  0.61412990  0.38033044    -0.02240
Br1149     Br  0.49020802  0.62983553  0.39470938    -0.02200
Br1150     Br  0.44071053  0.67265170  0.34295544    -0.02180
C1151       C  0.09339781  0.60841579  0.36242184    -0.03310
C1152       C  0.13430109  0.62226964  0.34995221     0.06370
C1153       C  0.15721464  0.65987018  0.35831830    -0.03420
C1154       C  0.14180198  0.68131895  0.38071636    -0.03420
C1155       C  0.10089474  0.66746524  0.39339856     0.06500
C1156       C  0.07627552  0.63113159  0.38391301    -0.03620
Br1157     Br  0.01995568  0.61045167  0.40051997    -0.02170
Br1158     Br  0.06102537  0.55793699  0.35005522    -0.02240
Br1159     Br  0.17605177  0.73023025  0.39354255    -0.02200
Br1160     Br  0.20679288  0.68431411  0.33775381    -0.02180
C1161       C  0.39207676  0.27452864  0.12949348    -0.03310
C1162       C  0.37218731  0.26417092  0.10564930     0.06370
C1163       C  0.33732584  0.23216382  0.10426946    -0.03420
C1164       C  0.32534402  0.20836533  0.12616688    -0.03420
C1165       C  0.35001237  0.21498317  0.14955692     0.06500
C1166       C  0.38344151  0.24901472  0.15092629    -0.03620
Br1167     Br  0.42425008  0.25844717  0.18017583    -0.02170
Br1168     Br  0.43691211  0.32088666  0.13132937    -0.02240
Br1169     Br  0.27628994  0.16597368  0.12308591    -0.02200
Br1170     Br  0.31012883  0.21762824  0.07137116    -0.02180
C1171       C  0.08711712  0.03054912  0.12162311    -0.03310
C1172       C  0.11402975  0.00181807  0.10627235     0.06370
C1173       C  0.16037898  0.99242730  0.11376736    -0.03420
C1174       C  0.17982220  0.01158705  0.13604585    -0.03420
C1175       C  0.15318041  0.04101822  0.15121049     0.06500
C1176       C  0.10645876  0.04972498  0.14395246    -0.03620
Br1177     Br  0.06888085  0.08954347  0.16382797    -0.02170
Br1178     Br  0.02439120  0.04665776  0.11163256    -0.02240
Br1179     Br  0.24237004  0.99425718  0.14600515    -0.02200
Br1180     Br  0.19699423  0.95124109  0.09428143    -0.02180
C1181       C  0.22475560  0.85117798  0.23739833    -0.03310
C1182       C  0.25250165  0.82744327  0.25490572     0.06370
C1183       C  0.27792804  0.85064882  0.27409391    -0.03420
C1184       C  0.27757079  0.89577399  0.27478861    -0.03420
C1185       C  0.25057568  0.91853037  0.25716609     0.06500
C1186       C  0.22352334  0.89606212  0.23893123    -0.03620
Br1187     Br  0.18532369  0.92772177  0.21534112    -0.02170
Br1188     Br  0.18902646  0.82458167  0.20986885    -0.02240
Br1189     Br  0.31390312  0.92700371  0.30007111    -0.02200
Br1190     Br  0.31192535  0.82179750  0.30055798    -0.02180
C1191       C  0.20084817  0.38131053  0.22579462    -0.03310
C1192       C  0.23679795  0.41215649  0.22553035     0.06370
C1193       C  0.28327196  0.39932706  0.22020002    -0.03420
C1194       C  0.29608337  0.35664186  0.22315228    -0.03420
C1195       C  0.26090554  0.32654757  0.22906406     0.06500
C1196       C  0.21315446  0.33816072  0.22647583    -0.03620
Br1197     Br  0.16481093  0.29515043  0.22335503    -0.02170
Br1198     Br  0.13541499  0.39725435  0.22704526    -0.02240
Br1199     Br  0.36163686  0.34153841  0.22099248    -0.02200
Br1200     Br  0.32853208  0.44067327  0.20863416    -0.02180
C1201       C  0.35548400  0.14516913  0.38218551    -0.03310
C1202       C  0.37419796  0.13373317  0.35782367     0.06370
C1203       C  0.40862474  0.10140582  0.35644575    -0.03420
C1204       C  0.42362826  0.08117320  0.37888513    -0.03420
C1205       C  0.40041811  0.08840569  0.40265055     0.06500
C1206       C  0.36623278  0.12127030  0.40406662    -0.03620
Br1207     Br  0.33112814  0.13363921  0.43519912    -0.02170
Br1208     Br  0.31640489  0.19512373  0.38623790    -0.02240
Br1209     Br  0.47897707  0.04637017  0.37669899    -0.02200
Br1210     Br  0.43372189  0.08132944  0.32394585    -0.02180
C1211       C  0.09559148  0.11128233  0.36304218    -0.03310
C1212       C  0.14416432  0.10331902  0.36292554     0.06370
C1213       C  0.17056473  0.11438469  0.38483093    -0.03420
C1214       C  0.15152404  0.14102609  0.40425052    -0.03420
C1215       C  0.10324379  0.15290324  0.40356175     0.06500
C1216       C  0.07474712  0.13467102  0.38355559    -0.03620
Br1217     Br  0.00700619  0.14061417  0.38282132    -0.02170
Br1218     Br  0.05812513  0.09292577  0.33402851    -0.02240
Br1219     Br  0.19473356  0.16319094  0.42984024    -0.02200
Br1220     Br  0.23512154  0.09548230  0.38660951    -0.02180
C1221       C  0.61427293  0.76841053  0.15321039    -0.03310
C1222       C  0.64565048  0.80310426  0.15117186     0.06370
C1223       C  0.66066550  0.81568076  0.12652875    -0.03420
C1224       C  0.64536435  0.79345060  0.10426189    -0.03420
C1225       C  0.61513205  0.75780362  0.10631497     0.06500
C1226       C  0.59954746  0.74570153  0.13102581    -0.03620
Br1227     Br  0.56022230  0.69593944  0.13524925    -0.02170
Br1228     Br  0.59329703  0.74947589  0.18643011    -0.02240
Br1229     Br  0.66471287  0.81390936  0.07111027    -0.02200
Br1230     Br  0.70153274  0.86458519  0.12302360    -0.02180
C1231       C  0.84592820  0.93606187  0.12525071    -0.03310
C1232       C  0.83588780  0.95924317  0.14796860     0.06370
C1233       C  0.83470625  0.00433301  0.14722692    -0.03420
C1234       C  0.85042651  0.02569212  0.12513295    -0.03420
C1235       C  0.86321212  0.00215939  0.10310555     0.06500
C1236       C  0.85574009  0.95771727  0.10269484    -0.03620
Br1237     Br  0.86387561  0.92513958  0.07157823    -0.02170
Br1238     Br  0.85461891  0.87490689  0.12502620    -0.02240
Br1239     Br  0.85693962  0.08657072  0.12522385    -0.02200
Br1240     Br  0.81135247  0.03712376  0.17600981    -0.02180
C1241       C  0.99612309  0.77932208  0.23420934    -0.03310
C1242       C  0.96559398  0.77786698  0.25532230     0.06370
C1243       C  0.97283813  0.74824911  0.27475625    -0.03420
C1244       C  0.01045858  0.71916429  0.27277048    -0.03420
C1245       C  0.04047085  0.71946142  0.25101075     0.06500
C1246       C  0.03255173  0.74970094  0.23156362    -0.03620
Br1247     Br  0.06791006  0.74969131  0.19969070    -0.02170
Br1248     Br  0.98701802  0.82199459  0.20843320    -0.02240
Br1249     Br  0.02083987  0.68009533  0.30024919    -0.02200
Br1250     Br  0.93145010  0.74832920  0.30418446    -0.02180
C1251       C  0.52786040  0.97279990  0.23525841    -0.03310
C1252       C  0.56340938  0.98491681  0.25292237     0.06370
C1253       C  0.55823843  0.02437017  0.26650842    -0.03420
C1254       C  0.51860490  0.05039728  0.26249815    -0.03420
C1255       C  0.47977615  0.03512710  0.24787304     0.06500
C1256       C  0.48551229  0.99606951  0.23382967    -0.03620
Br1257     Br  0.43723331  0.97303830  0.21126129    -0.02170
Br1258     Br  0.53748497  0.92605336  0.21100316    -0.02240
Br1259     Br  0.52107240  0.10816129  0.27609925    -0.02200
Br1260     Br  0.60373849  0.04433333  0.29172151    -0.02180
C1261       C  0.60639854  0.88991883  0.35473006    -0.03310
C1262       C  0.63892558  0.85726830  0.35921236     0.06370
C1263       C  0.65255239  0.84877827  0.38446381    -0.03420
C1264       C  0.63570218  0.87419639  0.40510157    -0.03420
C1265       C  0.60621484  0.90938919  0.40025301     0.06500
C1266       C  0.59235801  0.91713912  0.37488143    -0.03620
Br1267     Br  0.56094690  0.96910786  0.36677152    -0.02170
Br1268     Br  0.58639969  0.90162271  0.32015765    -0.02240
Br1269     Br  0.65487127  0.86080296  0.43944811    -0.02200
Br1270     Br  0.69685384  0.80370594  0.39014935    -0.02180
C1271       C  0.91604793  0.89114133  0.36882212    -0.03310
C1272       C  0.87826878  0.87578864  0.35389154     0.06370
C1273       C  0.85560995  0.83740913  0.36026481    -0.03420
C1274       C  0.86883468  0.81584246  0.38235153    -0.03420
C1275       C  0.90537111  0.83202630  0.39783736     0.06500
C1276       C  0.92959174  0.86923460  0.39088959    -0.03620
Br1277     Br  0.98153509  0.88966443  0.41143337    -0.02170
Br1278     Br  0.94817477  0.94258863  0.35938207    -0.02240
Br1279     Br  0.83528488  0.76509385  0.39209553    -0.02200
Br1280     Br  0.80726770  0.81335378  0.33836521    -0.02180
C1281       C  0.63939360  0.29114010  0.10142223    -0.03310
C1282       C  0.62342327  0.24899336  0.10358622     0.06370
C1283       C  0.62546885  0.22878007  0.12722989    -0.03420
C1284       C  0.64375489  0.25041220  0.14886050    -0.03420
C1285       C  0.65781398  0.29391779  0.14735347     0.06500
C1286       C  0.65617803  0.31378490  0.12313081    -0.03620
Br1287     Br  0.67416453  0.37254076  0.11879801    -0.02170
Br1288     Br  0.63453656  0.31914577  0.06892378    -0.02240
Br1289     Br  0.65046981  0.21782828  0.17971163    -0.02200
Br1290     Br  0.60302213  0.17083210  0.12978200    -0.02180
C1291       C  0.91936920  0.50266471  0.13074017    -0.03310
C1292       C  0.90648448  0.48763292  0.10600558     0.06370
C1293       C  0.87795455  0.45074503  0.10369679    -0.03420
C1294       C  0.86124222  0.43034771  0.12579005    -0.03420
C1295       C  0.87359583  0.44580052  0.15044894     0.06500
C1296       C  0.90354579  0.48159377  0.15281434    -0.03620
Br1297     Br  0.92052706  0.50424805  0.18623554    -0.02170
Br1298     Br  0.95566362  0.55439067  0.13478540    -0.02240
Br1299     Br  0.82193797  0.38023325  0.12217401    -0.02200
Br1300     Br  0.86285478  0.42607274  0.07052918    -0.02180
C1301       C  0.00749342  0.29370483  0.26418970    -0.03310
C1302       C  0.96895399  0.27739946  0.25014406     0.06370
C1303       C  0.97652956  0.24106431  0.23458899    -0.03420
C1304       C  0.01753755  0.21604746  0.23713281    -0.03420
C1305       C  0.05500486  0.22972161  0.25341417     0.06500
C1306       C  0.04971589  0.27008879  0.26629024    -0.03620
Br1307     Br  0.09843708  0.29486794  0.28777818    -0.02170
Br1308     Br  0.00452018  0.35082915  0.27840397    -0.02240
Br1309     Br  0.02041459  0.16351291  0.21741742    -0.02200
Br1310     Br  0.93703536  0.23223841  0.20521674    -0.02180
C1311       C  0.80798128  0.60671637  0.26066887    -0.03310
C1312       C  0.76831899  0.58068139  0.26466406     0.06370
C1313       C  0.72477641  0.59984382  0.27063950    -0.03420
C1314       C  0.71896922  0.64421900  0.26873805    -0.03420
C1315       C  0.75810442  0.67051058  0.26291874     0.06500
C1316       C  0.80323210  0.65131732  0.26074358    -0.03620
Br1317     Br  0.85989970  0.68517112  0.25843471    -0.02170
Br1318     Br  0.86871685  0.58175194  0.25324427    -0.02240
Br1319     Br  0.65619830  0.66695753  0.27224871    -0.02200
Br1320     Br  0.67352917  0.56500975  0.28272898    -0.02180
C1321       C  0.79887554  0.11126641  0.23286698    -0.03310
C1322       C  0.76298755  0.08097976  0.23633032     0.06370
C1323       C  0.71549416  0.09388994  0.23447472    -0.03420
C1324       C  0.70397329  0.13732049  0.23616134    -0.03420
C1325       C  0.74040953  0.16768578  0.23637343     0.06500
C1326       C  0.78677253  0.15423542  0.23132137    -0.03620
Br1327     Br  0.83346346  0.19517906  0.22213257    -0.02170
Br1328     Br  0.86463851  0.09595640  0.23267700    -0.02240
Br1329     Br  0.63921729  0.15395043  0.24040970    -0.02200
Br1330     Br  0.66663469  0.05225600  0.22854909    -0.02180
C1331       C  0.53952059  0.51584799  0.24148097    -0.03310
C1332       C  0.54117439  0.47154552  0.24629342     0.06370
C1333       C  0.49810579  0.45026109  0.25122359    -0.03420
C1334       C  0.45546106  0.47305986  0.25380810    -0.03420
C1335       C  0.45380167  0.51768872  0.24957784     0.06500
C1336       C  0.49678715  0.53870514  0.24363508    -0.03620
Br1337     Br  0.50000493  0.59989996  0.24006763    -0.02170
Br1338     Br  0.59500668  0.54697259  0.23090242    -0.02240
Br1339     Br  0.40050302  0.44090398  0.26418416    -0.02200
Br1340     Br  0.49504404  0.38866748  0.25183406    -0.02180
C1341       C  0.67025988  0.41501043  0.36782562    -0.03310
C1342       C  0.64620327  0.38066186  0.35578638     0.06370
C1343       C  0.60197488  0.36805940  0.36528541    -0.03420
C1344       C  0.58193771  0.38934939  0.38666488    -0.03420
C1345       C  0.60574515  0.42407115  0.39863316     0.06500
C1346       C  0.65028440  0.43634372  0.38928825    -0.03620
Br1347     Br  0.68311186  0.48377595  0.40510835    -0.02170
Br1348     Br  0.72887476  0.43544870  0.35380212    -0.02240
Br1349     Br  0.52296629  0.36840409  0.40013339    -0.02200
Br1350     Br  0.56925021  0.32041080  0.34949046    -0.02180
C1351       C  0.91532650  0.35086702  0.35586427    -0.03310
C1352       C  0.88963769  0.38904292  0.35746371     0.06370
C1353       C  0.88269461  0.40871170  0.38152833    -0.03420
C1354       C  0.89659957  0.38814188  0.40416639    -0.03420
C1355       C  0.91759634  0.34698030  0.40276294     0.06500
C1356       C  0.93073255  0.33065946  0.37811536    -0.03620
Br1357     Br  0.96859179  0.27993939  0.37326880    -0.02170
Br1358     Br  0.92239097  0.32194211  0.32308169    -0.02240
Br1359     Br  0.88528605  0.41761465  0.43645138    -0.02200
Br1360     Br  0.84983004  0.46219129  0.38320528    -0.02180
loop_ 
_geom_bond_atom_site_label_1 
_geom_bond_atom_site_label_2 
_geom_bond_distance 
_geom_bond_site_symmetry_2 
_ccdc_geom_bond_type 
N1            N2   1.332       .  A
N1            N7   1.313       .  A
N1          Mn30   2.249       .  S
N2            C9   1.366       .  A
N3            N5   1.320       .  A
N3            N4   1.331       .  A
N3          Mn19   2.279       .  S
N4           C10   1.365       .  A
N5            N6   1.324       .  A
N5          Mn30   2.214       .  S
N6           C10   1.353       .  A
N7            N8   1.309       .  A
N7          Mn19   2.144       .  S
N8            C9   1.338       .  A
C9         C1352   1.478       .  S
C10        C1302   1.509       .  S
N11          N17   1.312       .  A
N11          N12   1.326       .  A
N11         Mn41   2.212       .  S
N12          C20   1.356       .  A
N13          N14   1.322       .  A
N13          N15   1.316       .  A
N13         Mn19   2.217       .  S
N14          C21   1.352       .  A
N15          N16   1.321       .  A
N15         Mn41   2.193       .  S
N16          C21   1.353       .  A
N17          N18   1.312       .  A
N17         Mn19   2.165       .  S
N18          C20   1.348       .  A
Mn19        Cl43   2.516       .  S
C20        C1325   1.480       .  S
C21        C1342   1.485       .  S
N22          N23   1.324       .  A
N22          N28   1.317       .  A
N22         Mn30   2.226       .  S
N23          C31   1.357       .  A
N24          N26   1.321       .  A
N24          N25   1.319       .  A
N24         Mn42   2.213       .  S
N25          C32   1.351       .  A
N26          N27   1.324       .  A
N26         Mn30   2.233       .  S
N27          C32   1.358       .  A
N28          N29   1.317       .  A
N28         Mn42   2.182       .  S
N29          C31   1.348       .  A
Mn30        Cl43   2.575       .  S
C31        C1295   1.485       .  S
C32        C1312   1.488       .  S
N33          N34   1.323       .  A
N33          N39   1.311       .  A
N33         Mn41   2.210       .  S
N34          C44   1.359       .  A
N35          N36   1.324       .  A
N35          N37   1.314       .  A
N35         Mn42   2.228       .  S
N36          C45   1.361       .  A
N37          N38   1.313       .  A
N37         Mn41   2.177       .  S
N38          C45   1.348       .  A
N39          N40   1.320       .  A
N39         Mn42   2.197       .  S
N40          C44   1.352       .  A
Mn41        Cl43   2.572       .  S
Mn42        Cl43   2.525       .  S
C44        C1332   1.513       .  S
C45        C1285   1.499       .  S
N46          N47   1.323   1_565  A
N46          N52   1.310       .  A
N46         Mn75   2.207       .  S
N47          C54   1.357       .  A
N48          N50   1.313       .  A
N48          N49   1.316       .  A
N48         Mn64   2.183       .  S
N49          C55   1.348       .  A
N50          N51   1.323       .  A
N50         Mn75   2.197       .  S
N51          C55   1.354       .  A
N52          N53   1.314   1_565  A
N52         Mn64   2.159       .  S
N53          C54   1.347       .  A
C54        C1322   1.479       .  S
C55        C1272   1.471       .  S
N56          N62   1.315       .  A
N56          N57   1.326       .  A
N56         Mn86   2.225       .  S
N57          C65   1.361       .  A
N58          N59   1.316       .  A
N58          N60   1.314       .  A
N58         Mn64   2.196       .  S
N59          C66   1.349       .  A
N60          N61   1.323       .  A
N60         Mn86   2.221       .  S
N61          C66   1.361       .  A
N62          N63   1.309       .  A
N62         Mn64   2.156       .  S
N63          C65   1.340       .  A
Mn64        Cl88   2.496       .  S
C65        C1262   1.464       .  S
C66        C1252   1.509       .  S
N67          N68   1.323       .  A
N67          N73   1.313       .  A
N67         Mn75   2.197       .  S
N68          C76   1.355       .  A
N69          N71   1.314       .  A
N69          N70   1.319       .  A
N69         Mn87   2.212       .  S
N70          C77   1.355       .  A
N71          N72   1.320       .  A
N71         Mn75   2.179       .  S
N72          C77   1.350       .  A
N73          N74   1.316       .  A
N73         Mn87   2.187       .  S
N74          C76   1.348       .  A
Mn75        Cl88   2.573       .  S
C76        C1242   1.466       .  S
C77        C1232   1.485       .  S
N78          N79   1.327       .  A
N78          N84   1.316       .  A
N78         Mn86   2.242       .  S
N79          C89   1.362       .  A
N80          N81   1.317       .  A
N80          N82   1.316       .  A
N80         Mn87   2.199       .  S
N81          C90   1.351       .  A
N82          N83   1.326       .  A
N82         Mn86   2.234       .  S
N83          C90   1.361       .  A
N84          N85   1.316       .  A
N84         Mn87   2.171       .  S
N85          C89   1.346       .  A
Mn86        Cl88   2.578       .  S
Mn87        Cl88   2.504       .  S
C89        C1222   1.492       .  S
C90        C1315   1.503       .  S
N91          N92   1.319       .  A
N91          N97   1.317       .  A
N91        Mn120   2.214       .  S
N92          C99   1.353       .  A
N93          N95   1.314       .  A
N93          N94   1.332       .  A
N93        Mn109   2.253       .  S
N94         C100   1.366       .  A
N95          N96   1.307       .  A
N95        Mn120   2.139       .  S
N96         C100   1.338       .  A
N97          N98   1.328       .  A
N97        Mn109   2.250       .  S
N98          C99   1.364       .  A
C99        C1305   1.526       .  S
C100       C1212   1.482       .  S
N101        N107   1.322       .  A
N101        N102   1.323   1_545  A
N101       Mn131   2.236       .  S
N102        C110   1.354       .  A
N103        N104   1.327       .  A
N103        N105   1.318       .  A
N103       Mn109   2.243       .  S
N104        C111   1.361       .  A
N105        N106   1.316       .  A
N105       Mn131   2.181       .  S
N106        C111   1.345       .  A
N107        N108   1.326   1_545  A
N107       Mn109   2.240       .  S
N108        C110   1.358       .  A
Mn109      Cl133   2.589       .  S
C110       C1185   1.492       .  S
C111       C1175   1.499       .  S
N112        N113   1.319       .  A
N112        N118   1.313       .  A
N112       Mn120   2.200       .  S
N113        C121   1.351       .  A
N114        N116   1.310       .  A
N114        N115   1.323       .  A
N114       Mn132   2.200       .  S
N115        C122   1.354       .  A
N116        N117   1.315       .  A
N116       Mn120   2.166       .  S
N117        C122   1.349       .  A
N118        N119   1.324       .  A
N118       Mn132   2.211       .  S
N119        C121   1.358       .  A
Mn120      Cl133   2.508       .  S
C121       C1202   1.501       .  S
C122       C1195   1.482       .  S
N123        N124   1.331       .  A
N123        N129   1.313       .  A
N123       Mn131   2.256       .  S
N124        C134   1.367       .  A
N125        N126   1.323       .  A
N125        N127   1.311       .  A
N125       Mn132   2.210       .  S
N126        C135   1.359       .  A
N127        N128   1.317       .  A
N127       Mn131   2.193       .  S
N128        C135   1.351       .  A
N129        N130   1.313       .  A
N129       Mn132   2.171       .  S
N130        C134   1.344       .  A
Mn131      Cl133   2.519       .  S
Mn132      Cl133   2.572       .  S
C134       C1165   1.510       .  S
C135       C1255   1.514       .  S
N136        N137   1.319       .  A
N136        N142   1.318       .  A
N136       Mn165   2.204       .  S
N137        C144   1.352       .  A
N138        N140   1.314       .  A
N138        N139   1.339       .  A
N138       Mn154   2.287       .  S
N139        C145   1.374       .  A
N140        N141   1.303       .  A
N140       Mn165   2.120       .  S
N141        C145   1.332       .  A
N142        N143   1.323       .  A
N142       Mn154   2.240       .  S
N143        C144   1.360       .  A
C144       C1335   1.517       .  S
C145       C1142   1.497       .  S
N146        N152   1.319       .  A
N146        N147   1.318       .  A
N146       Mn176   2.226       .  S
N147        C155   1.350       .  A
N148        N149   1.330       .  A
N148        N150   1.321       .  A
N148       Mn154   2.256       .  S
N149        C156   1.361       .  A
N150        N151   1.313       .  A
N150       Mn176   2.157       .  S
N151        C156   1.340       .  A
N152        N153   1.329       .  A
N152       Mn154   2.244       .  S
N153        C155   1.365       .  A
Mn154      Cl178   2.597       .  S
C155       C1182   1.520       .  S
C156       C1122   1.480       .  S
N157        N158   1.319       .  A
N157        N163   1.314       .  A
N157       Mn165   2.202       .  S
N158        C166   1.349       .  A
N159        N161   1.310       .  A
N159        N160   1.323       .  A
N159       Mn177   2.196       .  S
N160        C167   1.353       .  A
N161        N162   1.315       .  A
N161       Mn165   2.166       .  S
N162        C167   1.350       .  A
N163        N164   1.319       .  A
N163       Mn177   2.166       .  S
N164        C166   1.349       .  A
Mn165      Cl178   2.493       .  S
C166       C1152   1.468       .  S
C167       C1192   1.476       .  S
N168        N169   1.334       .  A
N168        N174   1.313       .  A
N168       Mn176   2.273       .  S
N169        C179   1.370       .  A
N170        N171   1.327       .  A
N170        N172   1.309       .  A
N170       Mn177   2.207       .  S
N171        C180   1.362       .  A
N172        N173   1.310       .  A
N172       Mn176   2.161       .  S
N173        C180   1.343       .  A
N174        N175   1.308       .  A
N174       Mn177   2.133       .  S
N175        C179   1.337       .  A
Mn176      Cl178   2.488       .  S
Mn177      Cl178   2.582       .  S
C179       C1132   1.490       .  S
C180       C1245   1.487       .  S
N181        N182   1.320       .  A
N181        N187   1.314       .  A
N181       Mn210   2.187       .  S
N182        C189   1.351       .  A
N183        N185   1.311       .  A
N183        N184   1.310       .  A
N183       Mn199   2.140       .  S
N184        C190   1.340       .  A
N185        N186   1.322   1_554  A
N185       Mn210   2.196       .  S
N186        C190   1.355   1_556  A
N187        N188   1.319       .  A
N187       Mn199   2.196       .  S
N188        C189   1.351       .  A
C189       C1282   1.472       .  S
C190       C1102   1.450       .  S
N191        N197   1.314       .  A
N191        N192   1.317   1_554  A
N191       Mn221   2.191       .  S
N192        C200   1.355   1_556  A
N193        N194   1.308       .  A
N193        N195   1.316       .  A
N193       Mn199   2.140       .  S
N194        C201   1.335       .  A
N195        N196   1.333       .  A
N195       Mn221   2.251       .  S
N196        C201   1.364       .  A
N197        N198   1.318       .  A
N197       Mn199   2.210       .  S
N198        C200   1.353       .  A
Mn199      Cl223   2.479       .  S
C200       C1085   1.503       .  S
C201       C1162   1.477       .  S
N202        N203   1.318       .  A
N202        N208   1.314       .  A
N202       Mn210   2.192   1_556  S
N203        C211   1.352       .  A
N204        N206   1.311       .  A
N204        N205   1.319       .  A
N204       Mn222   2.180       .  S
N205        C212   1.349       .  A
N206        N207   1.321   1_556  A
N206       Mn210   2.199   1_556  S
N207        C212   1.356   1_554  A
N208        N209   1.319       .  A
N208       Mn222   2.191       .  S
N209        C211   1.352       .  A
Mn210      Cl223   2.574       .  S
C211       C1062   1.468       .  S
C212       C1112   1.477   1_556  S
N213        N214   1.324       .  A
N213        N219   1.318   1_554  A
N213       Mn221   2.213       .  S
N214        C224   1.359       .  A
N215        N216   1.315       .  A
N215        N217   1.317       .  A
N215       Mn222   2.172       .  S
N216        C225   1.344       .  A
N217        N218   1.328       .  A
N217       Mn221   2.243   1_556  S
N218        C225   1.360       .  A
N219        N220   1.309       .  A
N219       Mn222   2.170       .  S
N220        C224   1.342   1_556  A
Mn221      Cl223   2.593       .  S
Mn222      Cl223   2.492   1_556  S
C224       C1092   1.467       .  S
C225       C1072   1.487       .  S
N226        N227   1.327       .  A
N226        N232   1.315       .  A
N226       Mn255   2.225       .  S
N227        C234   1.361       .  A
N228        N230   1.310       .  A
N228        N229   1.312       .  A
N228       Mn244   2.141       .  S
N229        C235   1.344       .  A
N230        N231   1.320       .  A
N230       Mn255   2.194       .  S
N231        C235   1.355       .  A
N232        N233   1.316       .  A
N232       Mn244   2.192       .  S
N233        C234   1.348       .  A
C234       C1225   1.497       .  S
C235       C1095   1.467       .  S
N236        N242   1.315       .  A
N236        N237   1.321   1_554  A
N236       Mn266   2.199       .  S
N237        C245   1.356   1_556  A
N238        N239   1.308       .  A
N238        N240   1.310       .  A
N238       Mn244   2.137       .  S
N239        C246   1.336       .  A
N240        N241   1.333       .  A
N240       Mn266   2.248       .  S
N241        C246   1.367       .  A
N242        N243   1.321       .  A
N242       Mn244   2.238       .  S
N243        C245   1.357       .  A
Mn244      Cl268   2.472       .  S
C245       C1045   1.513   1_554  S
C246       C1125   1.479       .  S
N247        N248   1.326       .  A
N247        N253   1.318       .  A
N247       Mn255   2.238   1_556  S
N248        C256   1.359       .  A
N249        N251   1.307       .  A
N249        N250   1.320       .  A
N249       Mn267   2.187       .  S
N250        C257   1.353       .  A
N251        N252   1.322   1_556  A
N251       Mn255   2.200   1_556  S
N252        C257   1.358   1_554  A
N253        N254   1.318       .  A
N253       Mn267   2.195       .  S
N254        C256   1.351       .  A
Mn255      Cl268   2.579       .  S
C256       C1022   1.483       .  S
C257       C1052   1.512       .  S
N258        N259   1.321       .  A
N258        N264   1.321   1_554  A
N258       Mn266   2.213       .  S
N259        C269   1.354       .  A
N260        N261   1.313       .  A
N260        N262   1.315       .  A
N260       Mn267   2.164       .  S
N261        C270   1.343       .  A
N262        N263   1.328       .  A
N262       Mn266   2.229   1_556  S
N263        C270   1.360       .  A
N264        N265   1.310       .  A
N264       Mn267   2.174       .  S
N265        C269   1.341   1_556  A
Mn266      Cl268   2.597       .  S
Mn267      Cl268   2.492   1_556  S
C269       C1105   1.449       .  S
C270       C1035   1.505       .  S
N271        N272   1.325       .  A
N271        N277   1.312       .  A
N271       Mn300   2.216       .  S
N272        C279   1.359       .  A
N273        N275   1.309       .  A
N273        N274   1.316   1_455  A
N273       Mn289   2.159   1_455  S
N274        C280   1.349   1_654  A
N275        N276   1.322   1_554  A
N275       Mn300   2.209       .  S
N276        C280   1.358       .  A
N277        N278   1.320       .  A
N277       Mn289   2.189   1_455  S
N278        C279   1.350       .  A
C279       C1172   1.496   1_565  S
C280       C1005   1.483       .  S
N281        N287   1.315       .  A
N281        N282   1.325   1_554  A
N281       Mn311   2.218   1_565  S
N282        C290   1.361   1_556  A
N283        N284   1.308   1_545  A
N283        N285   1.313       .  A
N283       Mn289   2.157   1_545  S
N284        C291   1.338   1_565  A
N285        N286   1.333       .  A
N285       Mn311   2.241       .  S
N286        C291   1.364       .  A
N287        N288   1.317       .  A
N287       Mn289   2.219       .  S
N288        C290   1.350       .  A
Mn289      Cl313   2.489   1_655  S
C290       C1055   1.518       .  S
C291       C1235   1.483       .  S
N292        N293   1.313       .  A
N292        N298   1.314       .  A
N292       Mn300   2.184   1_556  S
N293        C301   1.347       .  A
N294        N296   1.309       .  A
N294        N295   1.315       .  A
N294       Mn312   2.181       .  S
N295        C302   1.350   1_556  A
N296        N297   1.320   1_556  A
N296       Mn300   2.188   1_546  S
N297        C302   1.357       .  A
N298        N299   1.330       .  A
N298       Mn312   2.256   1_565  S
N299        C301   1.368       .  A
Mn300      Cl313   2.563       .  S
C301        C992   1.521       .  S
C302       C1082   1.501       .  S
N303        N304   1.327       .  A
N303        N309   1.322   1_654  A
N303       Mn311   2.231       .  S
N304        C314   1.358       .  A
N305        N306   1.320       .  A
N305        N307   1.320       .  A
N305       Mn312   2.186   1_655  S
N306        C315   1.348       .  A
N307        N308   1.322       .  A
N307       Mn311   2.223   1_556  S
N308        C315   1.354       .  A
N309        N310   1.317       .  A
N309       Mn312   2.216       .  S
N310        C314   1.348   1_456  A
Mn311      Cl313   2.588   1_645  S
Mn312      Cl313   2.513   1_546  S
C314       C1012   1.477       .  S
C315        C982   1.498       .  S
N316        N317   1.322       .  A
N316        N322   1.316       .  A
N316       Mn345   2.201       .  S
N317        C324   1.354       .  A
N318        N320   1.309   1_455  A
N318        N319   1.311       .  A
N318       Mn334   2.155       .  S
N319        C325   1.345   1_454  A
N320        N321   1.328   1_554  A
N320       Mn345   2.227       .  S
N321        C325   1.363       .  A
N322        N323   1.320       .  A
N322       Mn334   2.210   1_655  S
N323        C324   1.352       .  A
C324       C1292   1.492       .  S
C325       C1002   1.498       .  S
N326        N332   1.319   1_556  A
N326        N327   1.322       .  A
N326       Mn356   2.209   1_556  S
N327        C335   1.352       .  A
N328        N329   1.304       .  A
N328        N330   1.313       .  A
N328       Mn334   2.126       .  S
N329        C336   1.335       .  A
N330        N331   1.334       .  A
N330       Mn356   2.249       .  S
N331        C336   1.366       .  A
N332        N333   1.325       .  A
N332       Mn334   2.236       .  S
N333        C335   1.358   1_554  A
Mn334      Cl358   2.499       .  S
C335       C1042   1.489       .  S
C336       C1135   1.473       .  S
N337        N338   1.316       .  A
N337        N343   1.316       .  A
N337       Mn345   2.177   1_556  S
N338        C346   1.349       .  A
N339        N341   1.310   1_556  A
N339        N340   1.312       .  A
N339       Mn357   2.167       .  S
N340        C347   1.345   1_556  A
N341        N342   1.326       .  A
N341       Mn345   2.221       .  S
N342        C347   1.362       .  A
N343        N344   1.324       .  A
N343       Mn357   2.226       .  S
N344        C346   1.355       .  A
Mn345      Cl358   2.574   1_655  S
C346        C962   1.473       .  S
C347       C1115   1.510       .  S
N348        N349   1.240       .  A
N348        N354   1.309   1_554  A
N348       Mn356   2.232       .  S
N349        C359   1.285   1_554  A
N350        N351   1.310       .  A
N350        N352   1.312       .  A
N350       Mn357   2.141   1_455  S
N351        C360   1.340       .  A
N352        N353   1.325       .  A
N352       Mn356   2.211   1_556  S
N353        C360   1.359       .  A
N354        N355   1.384       .  A
N354       Mn357   2.253   1_455  S
N355        C359   1.460       .  A
Mn356      Cl358   2.553       .  S
Mn357      Cl358   2.485   1_656  S
C359       C1015   1.483   1_556  S
C360        C972   1.482       .  S
N361        N362   1.335       .  A
N361        N367   1.313       .  A
N361       Mn390   2.266       .  S
N362        C369   1.371       .  A
N363        N365   1.316       .  A
N363        N364   1.317       .  A
N363       Mn379   2.199       .  S
N364        C370   1.351       .  A
N365        N366   1.324       .  A
N365       Mn390   2.223       .  S
N366        C370   1.360       .  A
N367        N368   1.304       .  A
N367       Mn379   2.127       .  S
N368        C369   1.336       .  A
C369        C985   1.489       .  S
C370        C922   1.501       .  S
N371        N377   1.309       .  A
N371        N372   1.321   1_545  A
N371       Mn401   2.185       .  S
N372        C380   1.354       .  A
N373        N374   1.319       .  A
N373        N375   1.313       .  A
N373       Mn379   2.204       .  S
N374        C381   1.351       .  A
N375        N376   1.319       .  A
N375       Mn401   2.167       .  S
N376        C381   1.349       .  A
N377        N378   1.310   1_545  A
N377       Mn379   2.144       .  S
N378        C380   1.344       .  A
Mn379      Cl403   2.483       .  S
C380        C932   1.448       .  S
C381       C1065   1.464       .  S
N382        N383   1.329       .  A
N382        N388   1.319       .  A
N382       Mn390   2.257       .  S
N383        C391   1.363       .  A
N384        N386   1.320       .  A
N384        N385   1.317       .  A
N384       Mn402   2.217       .  S
N385        C392   1.350       .  A
N386        N387   1.324       .  A
N386       Mn390   2.210       .  S
N387        C392   1.355       .  A
N388        N389   1.312       .  A
N388       Mn402   2.161       .  S
N389        C391   1.340       .  A
Mn390      Cl403   2.589       .  S
C391        C915   1.484       .  S
C392        C942   1.471       .  S
N393        N394   1.320       .  A
N393        N399   1.310       .  A
N393       Mn401   2.194       .  S
N394        C404   1.356       .  A
N395        N396   1.328       .  A
N395        N397   1.311       .  A
N395       Mn402   2.238       .  S
N396        C405   1.366       .  A
N397        N398   1.311       .  A
N397       Mn401   2.152       .  S
N398        C405   1.342       .  A
N399        N400   1.315       .  A
N399       Mn402   2.169       .  S
N400        C404   1.348       .  A
Mn401      Cl403   2.566       .  S
Mn402      Cl403   2.501       .  S
C404        C955   1.479       .  S
C405        C902   1.503       .  S
N406        N407   1.335       .  A
N406        N412   1.312       .  A
N406       Mn435   2.260       .  S
N407        C414   1.367       .  A
N408        N410   1.314       .  A
N408        N409   1.323       .  A
N408       Mn424   2.244       .  S
N409        C415   1.355       .  A
N410        N411   1.324       .  A
N410       Mn435   2.210       .  S
N411        C415   1.361       .  A
N412        N413   1.306       .  A
N412       Mn424   2.158       .  S
N413        C414   1.333       .  A
C414       C1025   1.492       .  S
C415        C892   1.524       .  S
N416        N422   1.309       .  A
N416        N417   1.325       .  A
N416       Mn446   2.208       .  S
N417        C425   1.359       .  A
N418        N419   1.316       .  A
N418        N420   1.309       .  A
N418       Mn424   2.191       .  S
N419        C426   1.350       .  A
N420        N421   1.323       .  A
N420       Mn446   2.190       .  S
N421        C426   1.357       .  A
N422        N423   1.306       .  A
N422       Mn424   2.130       .  S
N423        C425   1.341       .  A
Mn424      Cl448   2.464       .  S
C425        C935   1.467       .  S
C426        C965   1.504       .  S
N427        N428   1.327       .  A
N427        N433   1.319       .  A
N427       Mn435   2.239       .  S
N428        C436   1.359       .  A
N429        N431   1.322       .  A
N429        N430   1.312       .  A
N429       Mn447   2.201       .  S
N430        C437   1.347       .  A
N431        N432   1.325       .  A
N431       Mn435   2.233       .  S
N432        C437   1.359       .  A
N433        N434   1.315       .  A
N433       Mn447   2.174       .  S
N434        C436   1.344       .  A
Mn435      Cl448   2.596       .  S
C436        C862   1.508       .  S
C437        C945   1.482       .  S
N438        N439   1.321       .  A
N438        N444   1.309       .  A
N438       Mn446   2.196       .  S
N439        C449   1.357       .  A
N440        N441   1.325       .  A
N440        N442   1.315       .  A
N440       Mn447   2.231       .  S
N441        C450   1.362       .  A
N442        N443   1.315       .  A
N442       Mn446   2.190       .  S
N443        C450   1.349       .  A
N444        N445   1.320       .  A
N444       Mn447   2.188       .  S
N445        C449   1.353       .  A
Mn446      Cl448   2.569       .  S
Mn447      Cl448   2.503       .  S
C449        C882   1.503       .  S
C450        C872   1.502       .  S
N451        N452   1.326       .  A
N451        N457   1.313       .  A
N451       Mn480   2.224       .  S
N452        C459   1.361       .  A
N453        N455   1.316       .  A
N453        N454   1.317       .  A
N453       Mn469   2.203       .  S
N454        C460   1.350       .  A
N455        N456   1.325       .  A
N455       Mn480   2.229       .  S
N456        C460   1.361       .  A
N457        N458   1.308       .  A
N457       Mn469   2.147       .  S
N458        C459   1.341       .  A
C459        C975   1.463       .  S
C460        C885   1.512       .  S
N461        N467   1.311       .  A
N461        N462   1.325       .  A
N461       Mn491   2.216       .  S
N462        C470   1.358       .  A
N463        N464   1.319       .  A
N463        N465   1.314       .  A
N463       Mn469   2.185       .  S
N464        C471   1.347       .  A
N465        N466   1.323       .  A
N465       Mn491   2.201       .  S
N466        C471   1.354       .  A
N467        N468   1.315       .  A
N467       Mn469   2.169       .  S
N468        C470   1.349       .  A
Mn469      Cl493   2.504       .  S
C470        C842   1.486       .  S
C471       C1075   1.478       .  S
N472        N473   1.329       .  A
N472        N478   1.318       .  A
N472       Mn480   2.239       .  S
N473        C481   1.361       .  A
N474        N476   1.319       .  A
N474        N475   1.324       .  A
N474       Mn492   2.237       .  S
N475        C482   1.357       .  A
N476        N477   1.321       .  A
N476       Mn480   2.201       .  S
N477        C482   1.352       .  A
N478        N479   1.311       .  A
N478       Mn492   2.153       .  S
N479        C481   1.339       .  A
Mn480      Cl493   2.579       .  S
C481        C835   1.475       .  S
C482        C852   1.488       .  S
N483        N484   1.324       .  A
N483        N489   1.309       .  A
N483       Mn491   2.206       .  S
N484        C494   1.360       .  A
N485        N486   1.325       .  A
N485        N487   1.316       .  A
N485       Mn492   2.231       .  S
N486        C495   1.358       .  A
N487        N488   1.318       .  A
N487       Mn491   2.187       .  S
N488        C495   1.349       .  A
N489        N490   1.310       .  A
N489       Mn492   2.159       .  S
N490        C494   1.345       .  A
Mn491      Cl493   2.566       .  S
Mn492      Cl493   2.508       .  S
C494        C952   1.494       .  S
C495        C825   1.480       .  S
N496        N497   1.330       .  A
N496        N502   1.313       .  A
N496       Mn525   2.238       .  S
N497        C504   1.365       .  A
N498        N500   1.321       .  A
N498        N499   1.329       .  A
N498       Mn514   2.265       .  S
N499        C505   1.363       .  A
N500        N501   1.326       .  A
N500       Mn525   2.233       .  S
N501        C505   1.356       .  A
N502        N503   1.309       .  A
N502       Mn514   2.147       .  S
N503        C504   1.338       .  A
C504       C1032   1.474       .  S
C505        C895   1.515       .  S
N506        N512   1.313       .  A
N506        N507   1.323       .  A
N506       Mn536   2.194       .  S
N507        C515   1.351       .  A
N508        N509   1.322       .  A
N508        N510   1.318       .  A
N508       Mn514   2.227       .  S
N509        C516   1.352       .  A
N510        N511   1.326       .  A
N510       Mn536   2.203       .  S
N511        C516   1.356       .  A
N512        N513   1.319       .  A
N512       Mn514   2.195       .  S
N513        C515   1.354       .  A
Mn514      Cl538   2.508       .  S
C515        C845   1.479       .  S
C516        C995   1.498       .  S
N517        N518   1.325       .  A
N517        N523   1.316       .  A
N517       Mn525   2.231       .  S
N518        C526   1.360       .  A
N519        N521   1.318       .  A
N519        N520   1.315       .  A
N519       Mn537   2.195       .  S
N520        C527   1.350   1_565  A
N521        N522   1.327       .  A
N521       Mn525   2.242       .  S
N522        C527   1.362   1_565  A
N523        N524   1.315       .  A
N523       Mn537   2.170       .  S
N524        C526   1.346       .  A
Mn525      Cl538   2.581       .  S
C526        C802   1.486       .  S
C527        C855   1.503       .  S
N528        N529   1.323       .  A
N528        N534   1.310       .  A
N528       Mn536   2.203       .  S
N529        C539   1.357       .  A
N530        N531   1.319       .  A
N530        N532   1.315       .  A
N530       Mn537   2.221       .  S
N531        C540   1.357       .  A
N532        N533   1.320       .  A
N532       Mn536   2.179       .  S
N533        C540   1.350       .  A
N534        N535   1.320       .  A
N534       Mn537   2.197       .  S
N535        C539   1.353       .  A
Mn536      Cl538   2.582       .  S
Mn537      Cl538   2.510       .  S
C539        C925   1.507       .  S
C540        C812   1.481       .  S
N541        N542   1.319       .  A
N541        N547   1.316       .  A
N541       Mn570   2.202       .  S
N542        C549   1.352       .  A
N543        N545   1.313       .  A
N543        N544   1.322       .  A
N543       Mn559   2.200       .  S
N544        C550   1.351       .  A
N545        N546   1.326       .  A
N545       Mn570   2.220   1_565  S
N546        C550   1.358       .  A
N547        N548   1.324       .  A
N547       Mn559   2.235   1_545  S
N548        C549   1.362       .  A
C549       C1205   1.509       .  S
C550        C765   1.491       .  S
N551        N557   1.321       .  A
N551        N552   1.319       .  A
N551       Mn581   2.200       .  S
N552        C560   1.351       .  A
N553        N554   1.318       .  A
N553        N555   1.320       .  A
N553       Mn559   2.191       .  S
N554        C561   1.348       .  A
N555        N556   1.323       .  A
N555       Mn581   2.208       .  S
N556        C561   1.351       .  A
N557        N558   1.314       .  A
N557       Mn559   2.193       .  S
N558        C560   1.346       .  A
Mn559      Cl583   2.520       .  S
C560        C772   1.451       .  S
C561       C1265   1.484       .  S
N562        N563   1.324       .  A
N562        N568   1.315       .  A
N562       Mn570   2.215       .  S
N563        C571   1.358       .  A
N564        N566   1.311       .  A
N564        N565   1.314       .  A
N564       Mn582   2.153       .  S
N565        C572   1.346       .  A
N566        N567   1.323       .  A
N566       Mn570   2.209       .  S
N567        C572   1.357       .  A
N568        N569   1.317       .  A
N568       Mn582   2.190       .  S
N569        C571   1.348       .  A
Mn570      Cl583   2.571   1_545  S
C571        C805   1.491   1_545  S
C572        C782   1.474       .  S
N573        N574   1.322       .  A
N573        N579   1.317       .  A
N573       Mn581   2.206   1_545  S
N574        C584   1.355       .  A
N575        N576   1.309       .  A
N575        N577   1.312       .  A
N575       Mn582   2.140   1_565  S
N576        C585   1.338       .  A
N577        N578   1.330       .  A
N577       Mn581   2.230       .  S
N578        C585   1.362       .  A
N579        N580   1.320       .  A
N579       Mn582   2.219       .  S
N580        C584   1.354       .  A
Mn581      Cl583   2.574       .  S
Mn582      Cl583   2.503   1_545  S
C584        C792   1.488       .  S
C585        C905   1.470       .  S
N586        N587   1.318       .  A
N586        N592   1.316       .  A
N586       Mn615   2.196       .  S
N587        C594   1.351       .  A
N588        N590   1.311       .  A
N588        N589   1.322       .  A
N588       Mn604   2.208       .  S
N589        C595   1.356       .  A
N590        N591   1.323       .  A
N590       Mn615   2.205       .  S
N591        C595   1.357       .  A
N592        N593   1.325       .  A
N592       Mn604   2.225       .  S
N593        C594   1.359       .  A
C594       C1145   1.478       .  S
C595        C745   1.505       .  S
N596        N602   1.320       .  A
N596        N597   1.320       .  A
N596       Mn626   2.211       .  S
N597        C605   1.355       .  A
N598        N599   1.318       .  A
N598        N600   1.319       .  A
N598       Mn604   2.193       .  S
N599        C606   1.348       .  A
N600        N601   1.325       .  A
N600       Mn626   2.225       .  S
N601        C606   1.356       .  A
N602        N603   1.317       .  A
N602       Mn604   2.207       .  S
N603        C605   1.350       .  A
Mn604      Cl628   2.521       .  S
C605        C785   1.480       .  S
C606       C1345   1.489       .  S
N607        N608   1.323       .  A
N607        N613   1.315       .  A
N607       Mn615   2.199       .  S
N608        C616   1.353       .  A
N609        N611   1.311       .  A
N609        N610   1.313       .  A
N609       Mn627   2.148       .  S
N610        C617   1.344       .  A
N611        N612   1.320       .  A
N611       Mn615   2.190       .  S
N612        C617   1.351       .  A
N613        N614   1.319       .  A
N613       Mn627   2.204       .  S
N614        C616   1.350       .  A
Mn615      Cl628   2.563       .  S
C616        C822   1.476       .  S
C617        C775   1.449       .  S
N618        N619   1.322       .  A
N618        N624   1.317       .  A
N618       Mn626   2.215       .  S
N619        C629   1.357       .  A
N620        N621   1.307       .  A
N620        N622   1.312       .  A
N620       Mn627   2.129       .  S
N621        C630   1.336       .  A
N622        N623   1.331       .  A
N622       Mn626   2.250       .  S
N623        C630   1.367       .  A
N624        N625   1.323       .  A
N624       Mn627   2.234       .  S
N625        C629   1.358       .  A
Mn626      Cl628   2.568       .  S
Mn627      Cl628   2.514       .  S
C629        C752   1.511       .  S
C630        C865   1.477       .  S
N631        N632   1.322       .  A
N631        N637   1.314       .  A
N631       Mn660   2.207       .  S
N632        C639   1.356       .  A
N633        N635   1.311       .  A
N633        N634   1.321       .  A
N633       Mn649   2.206       .  S
N634        C640   1.354       .  A
N635        N636   1.321       .  A
N635       Mn660   2.183       .  S
N636        C640   1.353       .  A
N637        N638   1.318       .  A
N637       Mn649   2.211       .  S
N638        C639   1.356       .  A
C639       C1355   1.510       .  S
C640        C795   1.483       .  S
N641        N647   1.317   1_455  A
N641        N642   1.320       .  A
N641       Mn671   2.214       .  S
N642        C650   1.358       .  A
N643        N644   1.320       .  A
N643        N645   1.318       .  A
N643       Mn649   2.193   1_455  S
N644        C651   1.348       .  A
N645        N646   1.323       .  A
N645       Mn671   2.219       .  S
N646        C651   1.354       .  A
N647        N648   1.310       .  A
N647       Mn649   2.176       .  S
N648        C650   1.344   1_655  A
Mn649      Cl673   2.508       .  S
C650        C732   1.489       .  S
C651       C1215   1.513       .  S
N652        N653   1.324       .  A
N652        N658   1.315       .  A
N652       Mn660   2.215       .  S
N653        C661   1.357       .  A
N654        N656   1.311       .  A
N654        N655   1.312   1_655  A
N654       Mn672   2.142   1_655  S
N655        C662   1.343   1_455  A
N656        N657   1.318       .  A
N656       Mn660   2.179       .  S
N657        C662   1.350       .  A
N658        N659   1.317       .  A
N658       Mn672   2.179   1_655  S
N659        C661   1.345       .  A
Mn660      Cl673   2.567       .  S
C661        C912   1.477       .  S
C662        C722   1.443       .  S
N663        N664   1.323       .  A
N663        N669   1.317       .  A
N663       Mn671   2.218       .  S
N664        C674   1.358       .  A
N665        N666   1.307       .  A
N665        N667   1.311       .  A
N665       Mn672   2.133       .  S
N666        C675   1.336       .  A
N667        N668   1.331       .  A
N667       Mn671   2.241       .  S
N668        C675   1.365       .  A
N669        N670   1.321       .  A
N669       Mn672   2.226       .  S
N670        C674   1.356       .  A
Mn671      Cl673   2.574   1_455  S
Mn672      Cl673   2.497   1_455  S
C674        C742   1.507       .  S
C675        C832   1.471       .  S
N676        N677   1.321       .  A
N676        N682   1.315       .  A
N676       Mn705   2.203       .  S
N677        C684   1.353       .  A
N678        N680   1.311       .  A
N678        N679   1.322       .  A
N678       Mn694   2.207       .  S
N679        C685   1.357       .  A
N680        N681   1.322       .  A
N680       Mn705   2.205       .  S
N681        C685   1.357       .  A
N682        N683   1.318       .  A
N682       Mn694   2.190       .  S
N683        C684   1.350       .  A
C684       C1275   1.467       .  S
C685        C755   1.509       .  S
N686        N692   1.321   1_455  A
N686        N687   1.318       .  A
N686       Mn716   2.200       .  S
N687        C695   1.351       .  A
N688        N689   1.314       .  A
N688        N690   1.317       .  A
N688       Mn694   2.172   1_455  S
N689        C696   1.343       .  A
N690        N691   1.325       .  A
N690       Mn716   2.221       .  S
N691        C696   1.356       .  A
N692        N693   1.312       .  A
N692       Mn694   2.185       .  S
N693        C695   1.344   1_655  A
Mn694      Cl718   2.500       .  S
C695        C725   1.446       .  S
C696       C1155   1.477       .  S
N697        N698   1.324       .  A
N697        N703   1.313       .  A
N697       Mn705   2.205       .  S
N698        C706   1.357       .  A
N699        N701   1.308       .  A
N699        N700   1.310   1_655  A
N699       Mn717   2.136   1_655  S
N700        C707   1.343   1_455  A
N701        N702   1.319       .  A
N701       Mn705   2.200       .  S
N702        C707   1.359       .  A
N703        N704   1.317       .  A
N703       Mn717   2.194   1_655  S
N704        C706   1.352       .  A
Mn705      Cl718   2.569       .  S
C706        C875   1.493       .  S
C707        C735   1.487       .  S
N708        N709   1.323       .  A
N708        N714   1.316       .  A
N708       Mn716   2.185       .  S
N709        C719   1.354       .  A
N710        N711   1.309       .  A
N710        N712   1.311       .  A
N710       Mn717   2.159       .  S
N711        C720   1.337       .  A
N712        N713   1.333       .  A
N712       Mn716   2.243       .  S
N713        C720   1.365       .  A
N714        N715   1.325       .  A
N714       Mn717   2.263       .  S
N715        C719   1.356       .  A
Mn716      Cl718   2.595   1_455  S
Mn717      Cl718   2.469   1_455  S
C719        C762   1.489       .  S
C720        C815   1.486       .  S
C721        C722   1.403   1_455  A
C721        C726   1.397       .  A
C721       Br728   1.932       .  S
C722        C723   1.405       .  A
C723        C724   1.398       .  A
C723       Br730   1.930       .  S
C724        C725   1.404   1_655  A
C724       Br729   1.930       .  S
C725        C726   1.406       .  A
C726       Br727   1.927       .  S
C731        C732   1.422   1_655  A
C731        C736   1.400   1_545  A
C731       Br738   1.940       .  S
C732        C733   1.415       .  A
C733        C734   1.408   1_545  A
C733       Br740   1.943       .  S
C734        C735   1.426   1_455  A
C734       Br739   1.943       .  S
C735        C736   1.412       .  A
C736       Br737   1.942       .  S
C741        C742   1.420       .  A
C741        C746   1.416       .  A
C741       Br748   1.936       .  S
C742        C743   1.420       .  A
C743        C744   1.416       .  A
C743       Br750   1.938       .  S
C744        C745   1.418       .  A
C744       Br749   1.936       .  S
C745        C746   1.418       .  A
C746       Br747   1.938       .  S
C751        C752   1.421       .  A
C751        C756   1.417       .  A
C751       Br758   1.937       .  S
C752        C753   1.420       .  A
C753        C754   1.417       .  A
C753       Br760   1.936       .  S
C754        C755   1.420       .  A
C754       Br759   1.937       .  S
C755        C756   1.419       .  A
C756       Br757   1.939       .  S
C761        C762   1.410       .  A
C761        C766   1.414       .  A
C761       Br768   1.928       .  S
C762        C763   1.413       .  A
C763        C764   1.413       .  A
C763       Br770   1.932       .  S
C764        C765   1.412       .  A
C764       Br769   1.927       .  S
C765        C766   1.412       .  A
C766       Br767   1.929       .  S
C771        C772   1.406       .  A
C771        C776   1.399       .  A
C771       Br778   1.928       .  S
C772        C773   1.404       .  A
C773        C774   1.400       .  A
C773       Br780   1.929       .  S
C774        C775   1.405       .  A
C774       Br779   1.929       .  S
C775        C776   1.405       .  A
C776       Br777   1.931       .  S
C781        C782   1.414       .  A
C781        C786   1.405       .  A
C781       Br788   1.936       .  S
C782        C783   1.408       .  A
C783        C784   1.407       .  A
C783       Br790   1.935       .  S
C784        C785   1.416       .  A
C784       Br789   1.932       .  S
C785        C786   1.412       .  A
C786       Br787   1.935       .  S
C791        C792   1.414       .  A
C791        C796   1.410       .  A
C791       Br798   1.933       .  S
C792        C793   1.416       .  A
C793        C794   1.408       .  A
C793       Br800   1.929       .  S
C794        C795   1.408       .  A
C794       Br799   1.931       .  S
C795        C796   1.411       .  A
C796       Br797   1.931       .  S
C801        C802   1.414       .  A
C801        C806   1.410       .  A
C801       Br808   1.937       .  S
C802        C803   1.413       .  A
C803        C804   1.411       .  A
C803       Br810   1.934       .  S
C804        C805   1.417       .  A
C804       Br809   1.935   1_565  S
C805        C806   1.415       .  A
C806       Br807   1.931       .  S
C811        C812   1.405       .  A
C811        C816   1.398       .  A
C811       Br818   1.943       .  S
C812        C813   1.419       .  A
C813        C814   1.417       .  A
C813       Br820   1.926       .  S
C814        C815   1.405       .  A
C814       Br819   1.925       .  S
C815        C816   1.419       .  A
C816       Br817   1.922       .  S
C821        C822   1.411       .  A
C821        C826   1.408       .  A
C821       Br828   1.932       .  S
C822        C823   1.407       .  A
C823        C824   1.410       .  A
C823       Br830   1.929       .  S
C824        C825   1.414       .  A
C824       Br829   1.931       .  S
C825        C826   1.410       .  A
C826       Br827   1.930       .  S
C831        C832   1.406       .  A
C831        C836   1.413       .  A
C831       Br838   1.925       .  S
C832        C833   1.413       .  A
C833        C834   1.403       .  A
C833       Br840   1.929       .  S
C834        C835   1.408       .  A
C834       Br839   1.936       .  S
C835        C836   1.413       .  A
C836       Br837   1.925       .  S
C841        C842   1.411       .  A
C841        C846   1.404       .  A
C841       Br848   1.925       .  S
C842        C843   1.416       .  A
C843        C844   1.408       .  A
C843       Br850   1.925       .  S
C844        C845   1.404       .  A
C844       Br849   1.923       .  S
C845        C846   1.398       .  A
C846       Br847   1.907       .  S
C851        C852   1.406       .  A
C851        C856   1.413       .  A
C851       Br858   1.928       .  S
C852        C853   1.409       .  A
C853        C854   1.409       .  A
C853       Br860   1.932       .  S
C854        C855   1.423       .  A
C854       Br859   1.938       .  S
C855        C856   1.421       .  A
C856       Br857   1.929       .  S
C861        C862   1.423       .  A
C861        C866   1.412       .  A
C861       Br868   1.934       .  S
C862        C863   1.429       .  A
C863        C864   1.412       .  A
C863       Br870   1.936       .  S
C864        C865   1.405       .  A
C864       Br869   1.935       .  S
C865        C866   1.408       .  A
C866       Br867   1.933       .  S
C871        C872   1.423       .  A
C871        C876   1.408       .  A
C871       Br878   1.939       .  S
C872        C873   1.418       .  A
C873        C874   1.414       .  A
C873       Br880   1.932       .  S
C874        C875   1.416       .  A
C874       Br879   1.933       .  S
C875        C876   1.412       .  A
C876       Br877   1.940       .  S
C881        C882   1.416   1_455  A
C881        C886   1.410       .  A
C881       Br888   1.938       .  S
C882        C883   1.420       .  A
C883        C884   1.416   1_655  A
C883       Br890   1.939       .  S
C884        C885   1.421       .  A
C884       Br889   1.936   1_455  S
C885        C886   1.424       .  A
C886       Br887   1.939       .  S
C891        C892   1.431       .  A
C891        C896   1.424       .  A
C891       Br898   1.935       .  S
C892        C893   1.423       .  A
C893        C894   1.413       .  A
C893       Br900   1.937       .  S
C894        C895   1.404       .  A
C894       Br899   1.902       .  S
C895        C896   1.413       .  A
C896       Br897   1.928       .  S
C901        C902   1.418       .  A
C901        C906   1.410   1_545  A
C901       Br908   1.934       .  S
C902        C903   1.433   1_545  A
C903        C904   1.409       .  A
C903       Br910   1.939       .  S
C904        C905   1.398       .  A
C904       Br909   1.934       .  S
C905        C906   1.407       .  A
C906       Br907   1.922   1_565  S
C911        C912   1.402       .  A
C911        C916   1.406       .  A
C911       Br918   1.934       .  S
C912        C913   1.415       .  A
C913        C914   1.411       .  A
C913       Br920   1.931       .  S
C914        C915   1.407       .  A
C914       Br919   1.929       .  S
C915        C916   1.422       .  A
C916       Br917   1.933       .  S
C921        C922   1.414       .  A
C921        C926   1.415   1_645  A
C921       Br928   1.937       .  S
C922        C923   1.421   1_545  A
C923        C924   1.413   1_655  A
C923       Br930   1.940       .  S
C924        C925   1.419       .  A
C924       Br929   1.937       .  S
C925        C926   1.424       .  A
C926       Br927   1.937       .  S
C931        C932   1.400       .  A
C931        C936   1.392       .  A
C931       Br938   1.938       .  S
C932        C933   1.404       .  A
C933        C934   1.407       .  A
C933       Br940   1.929       .  S
C934        C935   1.413       .  A
C934       Br939   1.929       .  S
C935        C936   1.417       .  A
C936       Br937   1.940       .  S
C941        C942   1.402       .  A
C941        C946   1.399       .  A
C941       Br948   1.927       .  S
C942        C943   1.407       .  A
C943        C944   1.414       .  A
C943       Br950   1.927       .  S
C944        C945   1.415       .  A
C944       Br949   1.928       .  S
C945        C946   1.416       .  A
C946       Br947   1.938       .  S
C951        C952   1.426       .  A
C951        C956   1.405       .  A
C951       Br958   1.938       .  S
C952        C953   1.418       .  A
C953        C954   1.409       .  A
C953       Br960   1.937       .  S
C954        C955   1.413       .  A
C954       Br959   1.937       .  S
C955        C956   1.408       .  A
C956       Br957   1.942       .  S
C961        C962   1.403       .  A
C961        C966   1.413       .  A
C961       Br968   1.932   1_655  S
C962        C963   1.402       .  A
C963        C964   1.406       .  A
C963       Br970   1.940       .  S
C964        C965   1.429       .  A
C964       Br969   1.936       .  S
C965        C966   1.426       .  A
C966       Br967   1.934       .  S
C971        C972   1.417       .  A
C971        C976   1.408       .  A
C971       Br978   1.932       .  S
C972        C973   1.419       .  A
C973        C974   1.404       .  A
C973       Br980   1.939       .  S
C974        C975   1.407       .  A
C974       Br979   1.935       .  S
C975        C976   1.405       .  A
C976       Br977   1.925       .  S
C981        C982   1.427       .  A
C981        C986   1.417       .  A
C981       Br988   1.932       .  S
C982        C983   1.413       .  A
C983        C984   1.403       .  A
C983       Br990   1.937       .  S
C984        C985   1.414       .  A
C984       Br989   1.929       .  S
C985        C986   1.406       .  A
C986       Br987   1.927       .  S
C991        C992   1.424       .  A
C991        C996   1.418       .  A
C991       Br998   1.934       .  S
C992        C993   1.435       .  A
C993        C994   1.414       .  A
C993      Br1000   1.942       .  S
C994        C995   1.407       .  A
C994       Br999   1.940       .  S
C995        C996   1.413       .  A
C996       Br997   1.932       .  S
C1001      C1002   1.416       .  A
C1001      C1006   1.412       .  A
C1001     Br1008   1.931       .  S
C1002      C1003   1.424   1_655  A
C1003      C1004   1.405       .  A
C1003     Br1010   1.929       .  S
C1004      C1005   1.406       .  A
C1004     Br1009   1.937       .  S
C1005      C1006   1.413   1_455  A
C1006     Br1007   1.931       .  S
C1011      C1012   1.407   1_556  A
C1011      C1016   1.409       .  A
C1011     Br1018   1.932       .  S
C1012      C1013   1.408   1_655  A
C1013      C1014   1.412       .  A
C1013     Br1020   1.929       .  S
C1014      C1015   1.413       .  A
C1014     Br1019   1.930       .  S
C1015      C1016   1.413   1_454  A
C1016     Br1017   1.932       .  S
C1021      C1022   1.414       .  A
C1021      C1026   1.418       .  A
C1021     Br1028   1.920       .  S
C1022      C1023   1.405       .  A
C1023      C1024   1.400       .  A
C1023     Br1030   1.939       .  S
C1024      C1025   1.423       .  A
C1024     Br1029   1.936       .  S
C1025      C1026   1.408       .  A
C1026     Br1027   1.923       .  S
C1031      C1032   1.402       .  A
C1031      C1036   1.407       .  A
C1031     Br1038   1.928       .  S
C1032      C1033   1.407       .  A
C1033      C1034   1.414       .  A
C1033     Br1040   1.932       .  S
C1034      C1035   1.424       .  A
C1034     Br1039   1.931       .  S
C1035      C1036   1.427       .  A
C1036     Br1037   1.940       .  S
C1041      C1042   1.406   1_554  A
C1041      C1046   1.413       .  A
C1041     Br1048   1.928       .  S
C1042      C1043   1.402       .  A
C1043      C1044   1.414       .  A
C1043     Br1050   1.929       .  S
C1044      C1045   1.429       .  A
C1044     Br1049   1.935       .  S
C1045      C1046   1.428   1_556  A
C1046     Br1047   1.938       .  S
C1051      C1052   1.418   1_554  A
C1051      C1056   1.412       .  A
C1051     Br1058   1.941       .  S
C1052      C1053   1.424       .  A
C1053      C1054   1.419       .  A
C1053     Br1060   1.940       .  S
C1054      C1055   1.424   1_556  A
C1054     Br1059   1.939       .  S
C1055      C1056   1.427       .  A
C1056     Br1057   1.941       .  S
C1061      C1062   1.410       .  A
C1061      C1066   1.403       .  A
C1061     Br1068   1.932       .  S
C1062      C1063   1.410       .  A
C1063      C1064   1.405       .  A
C1063     Br1070   1.930       .  S
C1064      C1065   1.404       .  A
C1064     Br1069   1.928       .  S
C1065      C1066   1.409       .  A
C1066     Br1067   1.935       .  S
C1071      C1072   1.420       .  A
C1071      C1076   1.407       .  A
C1071     Br1078   1.927       .  S
C1072      C1073   1.408       .  A
C1073      C1074   1.412       .  A
C1073     Br1080   1.928       .  S
C1074      C1075   1.414       .  A
C1074     Br1079   1.930       .  S
C1075      C1076   1.402       .  A
C1076     Br1077   1.933       .  S
C1081      C1082   1.422   1_556  A
C1081      C1086   1.409       .  A
C1081     Br1088   1.943       .  S
C1082      C1083   1.417       .  A
C1083      C1084   1.412       .  A
C1083     Br1090   1.941       .  S
C1084      C1085   1.425       .  A
C1084     Br1089   1.941       .  S
C1085      C1086   1.421   1_554  A
C1086     Br1087   1.943       .  S
C1091      C1092   1.407       .  A
C1091      C1096   1.405       .  A
C1091     Br1098   1.931       .  S
C1092      C1093   1.414   1_554  A
C1093      C1094   1.396       .  A
C1093     Br1100   1.930       .  S
C1094      C1095   1.403   1_556  A
C1094     Br1099   1.929       .  S
C1095      C1096   1.414       .  A
C1096     Br1097   1.933       .  S
C1101      C1102   1.408   1_556  A
C1101      C1106   1.400   1_545  A
C1101     Br1108   1.932       .  S
C1102      C1103   1.406       .  A
C1103      C1104   1.399   1_545  A
C1103     Br1110   1.930       .  S
C1104      C1105   1.405       .  A
C1104     Br1109   1.932       .  S
C1105      C1106   1.406   1_554  A
C1106     Br1107   1.932       .  S
C1111      C1112   1.408       .  A
C1111      C1116   1.414       .  A
C1111     Br1118   1.935       .  S
C1112      C1113   1.402   1_554  A
C1113      C1114   1.407       .  A
C1113     Br1120   1.943       .  S
C1114      C1115   1.433   1_556  A
C1114     Br1119   1.938       .  S
C1115      C1116   1.425       .  A
C1116     Br1117   1.934       .  S
C1121      C1122   1.415       .  A
C1121      C1126   1.417       .  A
C1121     Br1128   1.927       .  S
C1122      C1123   1.406       .  A
C1123      C1124   1.403       .  A
C1123     Br1130   1.933       .  S
C1124      C1125   1.414       .  A
C1124     Br1129   1.927       .  S
C1125      C1126   1.408       .  A
C1126     Br1127   1.924       .  S
C1131      C1132   1.421       .  A
C1131      C1136   1.405       .  A
C1131     Br1138   1.937       .  S
C1132      C1133   1.413       .  A
C1133      C1134   1.416       .  A
C1133     Br1140   1.924       .  S
C1134      C1135   1.407       .  A
C1134     Br1139   1.917       .  S
C1135      C1136   1.405       .  A
C1136     Br1137   1.934       .  S
C1141      C1142   1.424       .  A
C1141      C1146   1.400       .  A
C1141     Br1148   1.930       .  S
C1142      C1143   1.415       .  A
C1143      C1144   1.421       .  A
C1143     Br1150   1.924       .  S
C1144      C1145   1.412       .  A
C1144     Br1149   1.925       .  S
C1145      C1146   1.401       .  A
C1146     Br1147   1.942       .  S
C1151      C1152   1.402       .  A
C1151      C1156   1.404       .  A
C1151     Br1158   1.934       .  S
C1152      C1153   1.411       .  A
C1153      C1154   1.407       .  A
C1153     Br1160   1.934       .  S
C1154      C1155   1.407       .  A
C1154     Br1159   1.928       .  S
C1155      C1156   1.420       .  A
C1156     Br1157   1.934       .  S
C1161      C1162   1.400       .  A
C1161      C1166   1.409       .  A
C1161     Br1168   1.935       .  S
C1162      C1163   1.412       .  A
C1163      C1164   1.418       .  A
C1163     Br1170   1.931       .  S
C1164      C1165   1.421       .  A
C1164     Br1169   1.931       .  S
C1165      C1166   1.430       .  A
C1166     Br1167   1.938       .  S
C1171      C1172   1.420       .  A
C1171      C1176   1.413       .  A
C1171     Br1178   1.932       .  S
C1172      C1173   1.410   1_545  A
C1173      C1174   1.412   1_565  A
C1173     Br1180   1.935       .  S
C1174      C1175   1.424       .  A
C1174     Br1179   1.938   1_545  S
C1175      C1176   1.412       .  A
C1176     Br1177   1.933       .  S
C1181      C1182   1.432       .  A
C1181      C1186   1.414       .  A
C1181     Br1188   1.937       .  S
C1182      C1183   1.425       .  A
C1183      C1184   1.420       .  A
C1183     Br1190   1.932       .  S
C1184      C1185   1.408       .  A
C1184     Br1189   1.930       .  S
C1185      C1186   1.404       .  A
C1186     Br1187   1.937       .  S
C1191      C1192   1.407       .  A
C1191      C1196   1.405       .  A
C1191     Br1198   1.929       .  S
C1192      C1193   1.408       .  A
C1193      C1194   1.405       .  A
C1193     Br1200   1.930       .  S
C1194      C1195   1.412       .  A
C1194     Br1199   1.927       .  S
C1195      C1196   1.415       .  A
C1196     Br1197   1.931       .  S
C1201      C1202   1.416       .  A
C1201      C1206   1.414       .  A
C1201     Br1208   1.936       .  S
C1202      C1203   1.415       .  A
C1203      C1204   1.412       .  A
C1203     Br1210   1.932       .  S
C1204      C1205   1.416       .  A
C1204     Br1209   1.922       .  S
C1205      C1206   1.423       .  A
C1206     Br1207   1.936       .  S
C1211      C1212   1.404       .  A
C1211      C1216   1.416       .  A
C1211     Br1218   1.932       .  S
C1212      C1213   1.407       .  A
C1213      C1214   1.410       .  A
C1213     Br1220   1.934       .  S
C1214      C1215   1.425       .  A
C1214     Br1219   1.936       .  S
C1215      C1216   1.433       .  A
C1216     Br1217   1.936       .  S
C1221      C1222   1.413       .  A
C1221      C1226   1.412       .  A
C1221     Br1228   1.934       .  S
C1222      C1223   1.416       .  A
C1223      C1224   1.413       .  A
C1223     Br1230   1.936       .  S
C1224      C1225   1.416       .  A
C1224     Br1229   1.934       .  S
C1225      C1226   1.420       .  A
C1226     Br1227   1.937       .  S
C1231      C1232   1.408       .  A
C1231      C1236   1.398       .  A
C1231     Br1238   1.942       .  S
C1232      C1233   1.421   1_565  A
C1233      C1234   1.415       .  A
C1233     Br1240   1.922       .  S
C1234      C1235   1.402       .  A
C1234     Br1239   1.925       .  S
C1235      C1236   1.414   1_545  A
C1236     Br1237   1.916       .  S
C1241      C1242   1.400       .  A
C1241      C1246   1.401   1_655  A
C1241     Br1248   1.938       .  S
C1242      C1243   1.407       .  A
C1243      C1244   1.413   1_655  A
C1243     Br1250   1.930       .  S
C1244      C1245   1.417       .  A
C1244     Br1249   1.931       .  S
C1245      C1246   1.424       .  A
C1246     Br1247   1.939       .  S
C1251      C1252   1.416       .  A
C1251      C1256   1.415       .  A
C1251     Br1258   1.941       .  S
C1252      C1253   1.425   1_565  A
C1253      C1254   1.414       .  A
C1253     Br1260   1.942       .  S
C1254      C1255   1.421       .  A
C1254     Br1259   1.940       .  S
C1255      C1256   1.428   1_545  A
C1256     Br1257   1.941       .  S
C1261      C1262   1.409       .  A
C1261      C1266   1.400       .  A
C1261     Br1268   1.935       .  S
C1262      C1263   1.405       .  A
C1263      C1264   1.412       .  A
C1263     Br1270   1.929       .  S
C1264      C1265   1.419       .  A
C1264     Br1269   1.929       .  S
C1265      C1266   1.408       .  A
C1266     Br1267   1.922       .  S
C1271      C1272   1.408       .  A
C1271      C1276   1.409       .  A
C1271     Br1278   1.928       .  S
C1272      C1273   1.412       .  A
C1273      C1274   1.402       .  A
C1273     Br1280   1.933       .  S
C1274      C1275   1.406       .  A
C1274     Br1279   1.933       .  S
C1275      C1276   1.409       .  A
C1276     Br1277   1.929       .  S
C1281      C1282   1.407       .  A
C1281      C1286   1.410       .  A
C1281     Br1288   1.931       .  S
C1282      C1283   1.400       .  A
C1283      C1284   1.406       .  A
C1283     Br1290   1.937       .  S
C1284      C1285   1.429       .  A
C1284     Br1289   1.936       .  S
C1285      C1286   1.422       .  A
C1286     Br1287   1.934       .  S
C1291      C1292   1.414       .  A
C1291      C1296   1.411       .  A
C1291     Br1298   1.933       .  S
C1292      C1293   1.417       .  A
C1293      C1294   1.410       .  A
C1293     Br1300   1.931       .  S
C1294      C1295   1.411       .  A
C1294     Br1299   1.936       .  S
C1295      C1296   1.413       .  A
C1296     Br1297   1.932       .  S
C1301      C1302   1.410   1_455  A
C1301      C1306   1.420       .  A
C1301     Br1308   1.933       .  S
C1302      C1303   1.406       .  A
C1303      C1304   1.417   1_655  A
C1303     Br1310   1.918       .  S
C1304      C1305   1.425       .  A
C1304     Br1309   1.932       .  S
C1305      C1306   1.434       .  A
C1306     Br1307   1.937       .  S
C1311      C1312   1.409       .  A
C1311      C1316   1.411       .  A
C1311     Br1318   1.934       .  S
C1312      C1313   1.410       .  A
C1313      C1314   1.413       .  A
C1313     Br1320   1.931       .  S
C1314      C1315   1.419       .  A
C1314     Br1319   1.932       .  S
C1315      C1316   1.423       .  A
C1316     Br1317   1.933       .  S
C1321      C1322   1.407       .  A
C1321      C1326   1.401       .  A
C1321     Br1328   1.932       .  S
C1322      C1323   1.416       .  A
C1323      C1324   1.408       .  A
C1323     Br1330   1.928       .  S
C1324      C1325   1.407       .  A
C1324     Br1329   1.926       .  S
C1325      C1326   1.408       .  A
C1326     Br1327   1.913       .  S
C1331      C1332   1.423       .  A
C1331      C1336   1.417       .  A
C1331     Br1338   1.938       .  S
C1332      C1333   1.418       .  A
C1333      C1334   1.416       .  A
C1333     Br1340   1.941       .  S
C1334      C1335   1.427       .  A
C1334     Br1339   1.939       .  S
C1335      C1336   1.423       .  A
C1336     Br1337   1.941       .  S
C1341      C1342   1.415       .  A
C1341      C1346   1.412       .  A
C1341     Br1348   1.930       .  S
C1342      C1343   1.408       .  A
C1343      C1344   1.409       .  A
C1343     Br1350   1.934       .  S
C1344      C1345   1.419       .  A
C1344     Br1349   1.933       .  S
C1345      C1346   1.410       .  A
C1346     Br1347   1.931       .  S
C1351      C1352   1.409       .  A
C1351      C1356   1.407       .  A
C1351     Br1358   1.931       .  S
C1352      C1353   1.402       .  A
C1353      C1354   1.416       .  A
C1353     Br1360   1.929       .  S
C1354      C1355   1.429       .  A
C1354     Br1359   1.933       .  S
C1355      C1356   1.424       .  A
C1356     Br1357   1.941       .  S
