geometry optimzed in LAMMPS
_audit_creation_date              2020-11-30 
_audit_creation_method            'lammps2cif' 
_symmetry_space_group_name_H-M    'P1' 
_symmetry_Int_Tables_number       1 
_symmetry_cell_setting            triclinic 
loop_ 
_symmetry_equiv_pos_as_xyz 
  x,y,z 
_cell_length_a                    27.05209724 
_cell_length_b                    27.130040100807665 
_cell_length_c                    27.48748556742707 
_cell_angle_alpha                 92.25872878369303 
_cell_angle_beta                  83.98295777069758 
_cell_angle_gamma                 90.68935294118548 
loop_ 
_atom_site_label 
_atom_site_type_symbol 
_atom_site_fract_x 
_atom_site_fract_y 
_atom_site_fract_z 
_atom_site_charge 
C1          C  0.25801765  0.19165434  0.43627746     0.00200
C2          C  0.30144745  0.25812619  0.31152085     0.00200
C3          C  0.25804944  0.29613328  0.18190482     0.00200
C4          C  0.19585306  0.25383513  0.06074472     0.00200
C5          C  0.44925654  0.00928288  0.30818507     0.00200
C6          C  0.00341250  0.43697707  0.18483536     0.00200
O7          O  0.17957441  0.32942857  0.01976201    -0.55200
C8          C  0.08313504  0.45482097  0.03987430     0.77500
O9          O  0.07952379  0.33775621  0.91319716    -0.56300
C10         C  0.16214324  0.29007925  0.03880225     0.77400
C11         C  0.99839879  0.33875496  0.00207202     0.79800
Cd12       Cd  0.10086499  0.35929662  0.99351095     1.37500
O13         O  0.07640498  0.41470522  0.06176082    -0.55200
O14         O  0.02951555  0.30925755  0.01634495    -0.54000
C15         C  0.11956806  0.31453470  0.40327678     0.79800
O16         O  0.01511423  0.37574507  0.97892809    -0.56300
O17         O  0.10967269  0.45211894  0.99873327    -0.54800
O18         O  0.11540386  0.28420119  0.04013969    -0.54800
O19         O  0.15764309  0.33429469  0.92326527    -0.54000
O20         O  0.17343767  0.15927761  0.45018996    -0.55200
C21         C  0.54676913  0.08174356  0.42397064     0.77500
O22         O  0.13866183  0.23927039  0.35752155    -0.56300
C23         C  0.21214320  0.16354009  0.42012681     0.77400
C24         C  0.04913085  0.16802733  0.32051773     0.79800
Cd25       Cd  0.11482665  0.15794774  0.38914019     1.37500
O26         O  0.07944133  0.07377409  0.38757259    -0.53600
O27         O  0.08986689  0.14556185  0.30632800    -0.54000
C28         C  0.11725759  0.26148496  0.39521559     0.79800
O29         O  0.04381321  0.18859771  0.36280195    -0.56300
O30         O  0.55139818  0.12157522  0.44933363    -0.54800
O31         O  0.20721993  0.15100612  0.37553576    -0.54800
O32         O  0.09417394  0.23565700  0.42822776    -0.54000
O33         O  0.39687366  0.08226201  0.31086651    -0.55200
C34         C  0.34044705  0.22005397  0.29183733     0.77500
O35         O  0.00681896  0.14489843  0.25155779    -0.56300
C36         C  0.42451435  0.05176602  0.28489325     0.77400
C37         C  0.42690937  0.19094139  0.16425091     0.79800
Cd38       Cd  0.41633488  0.14942173  0.25405644     1.37500
O39         O  0.32870894  0.17776425  0.27461594    -0.55200
O40         O  0.38957087  0.16274633  0.17367719    -0.54000
C41         C  0.50604482  0.16731874  0.29389493     0.79800
O42         O  0.46333806  0.18727679  0.18889381    -0.56300
O43         O  0.38643943  0.22797105  0.29391252    -0.54800
O44         O  0.43518022  0.06213752  0.24036870    -0.54800
O45         O  0.46487687  0.18399438  0.31377647    -0.54000
O46         O  0.43089978  0.41478036  0.14174246    -0.55200
C47         C  0.30494349  0.32267984  0.15997383     0.77500
O48         O  0.43145785  0.29368008  0.03615397    -0.56300
C49         C  0.96973506  0.40080128  0.15919645     0.77400
C50         C  0.42374230  0.23459546  0.13640542     0.79800
Cd51       Cd  0.40359796  0.33161063  0.11354263     1.37500
O52         O  0.34196183  0.32887072  0.18424297    -0.55200
O53         O  0.45460248  0.26948297  0.14121493    -0.54000
C54         C  0.44694043  0.33483163  0.02088455     0.79800
O55         O  0.38599826  0.24313329  0.11473553    -0.56300
O56         O  0.31206787  0.33301334  0.11503052    -0.54800
O57         O  0.97741802  0.35478325  0.15623126    -0.54800
O58         O  0.42332517  0.37317045  0.03714607    -0.54000
C59         C  0.05637303  0.50187543  0.06068009     0.00200
C60         C  0.50461632  0.04477392  0.43650776     0.00200
O61         O  0.33381530  0.17303553  0.47367424    -0.55200
C62         C  0.45617614  0.07113778  0.45712168     0.77500
O63         O  0.33924557  0.07311528  0.59012756    -0.56300
C64         C  0.29331091  0.15739400  0.45874627     0.77400
C65         C  0.32876711  0.99536111  0.49187540     0.79800
Cd66       Cd  0.35878224  0.09327776  0.50593873     1.37500
O67         O  0.41648324  0.06491449  0.43707132    -0.55200
O68         O  0.29931766  0.03088681  0.48920000    -0.54000
C69         C  0.31895376  0.11487814  0.59614546     0.79800
O70         O  0.36766692  0.50412337  0.51164251    -0.56300
O71         O  0.45192969  0.09758376  0.49655559    -0.54800
O72         O  0.28486922  0.11165072  0.46257330    -0.54800
O73         O  0.34109534  0.15075249  0.57506282    -0.54000
O74         O  0.15925407  0.17248043  0.05038003    -0.55200
C75         C  0.09315069  0.54072663  0.07655127     0.77500
O76         O  0.24351628  0.13187599  0.14096438    -0.56300
C77         C  0.16674219  0.20841215  0.07984799     0.77400
C78         C  0.16638830  0.04323817  0.18018817     0.79800
Cd79       Cd  0.16351380  0.11069147  0.11063976     1.37500
O80         O  0.08093599  0.07241252  0.11107882    -0.55200
O81         O  0.13867807  0.08078281  0.19173574    -0.54000
C82         C  0.26761004  0.11418517  0.10233974     0.79800
O83         O  0.19634877  0.04347192  0.14174720    -0.56300
O84         O  0.13610693  0.54612582  0.05342838    -0.54800
O85         O  0.15670086  0.20068977  0.12536150    -0.54800
O86         O  0.24326509  0.09547145  0.06879519    -0.54000
O87         O  0.08438646  0.39706369  0.17462971    -0.55200
C88         C  0.21704018  0.33235546  0.20051374     0.77500
O89         O  0.13009835  0.99210708  0.24230299    -0.56300
C90         C  0.04660131  0.40928013  0.20362683     0.77400
C91         C  0.18591072  0.41686995  0.32312707     0.79800
Cd92       Cd  0.14215894  0.40338389  0.23815175     1.37500
O93         O  0.17565687  0.31832316  0.22212867    -0.55200
O94         O  0.16091487  0.37734926  0.31798775    -0.54000
C95         C  0.16053797  0.49794570  0.20568213     0.79800
O96         O  0.17574395  0.45346627  0.29937997    -0.56300
O97         O  0.22157657  0.37808385  0.19335728    -0.54800
O98         O  0.05021559  0.40358376  0.24891607    -0.54800
O99         O  0.18406073  0.46044462  0.18689541    -0.54000
O100        O  0.41963458  0.43444320  0.35043714    -0.55200
C101        C  0.32542420  0.30543661  0.33111226     0.77500
O102        O  0.28681693  0.44956229  0.43543870    -0.56300
C103        C  0.40973678  0.97167895  0.32728387     0.77400
C104        C  0.23242531  0.41719525  0.34494382     0.79800
Cd105      Cd  0.33078499  0.40545841  0.36823919     1.37500
O106        O  0.34024274  0.33965679  0.30282084    -0.55200
O107        O  0.26708896  0.44676176  0.33019980    -0.54000
C108        C  0.32252823  0.45149710  0.46136516     0.79800
O109        O  0.24255630  0.38424778  0.37339486    -0.56300
O110        O  0.32530731  0.31572211  0.37668659    -0.54800
O111        O  0.36446156  0.97551995  0.31981443    -0.54800
O112        O  0.35793106  0.42136344  0.45052362    -0.54000
C113        C  0.52115408  0.01101008  0.47573206    -0.13800
C114        C  0.02945966  0.52759015  0.02199309    -0.29000
H115        H  0.02869060  0.97265936  0.46474194     0.15200
H116        H  0.51945109  0.56532883  0.03156809     0.15800
C117        C  0.02809768  0.47673776  0.14985953    -0.13800
C118        C  0.01736482  0.48570226  0.10329527    -0.29000
H119        H  0.06168543  0.49379451  0.16140082     0.15200
H120        H  0.98422307  0.46872763  0.09096045     0.15800
C121        C  0.47608750  0.03451141  0.35048520    -0.13800
C122        C  0.49347698  0.01335872  0.38957547    -0.29000
H123        H  0.47655169  0.07465556  0.35227651     0.15200
H124        H  0.49476716  0.97343224  0.39004960     0.15800
C125        C  0.97049147  0.46144639  0.22805053    -0.13800
C126        C  0.48646530  0.98498119  0.26865260    -0.29000
H127        H  0.93046564  0.45850334  0.22703981     0.15200
H128        H  0.52589973  0.98903266  0.27220072     0.15800
C129        C  0.23923742  0.26328166  0.14064782    -0.13800
C130        C  0.21852287  0.28271668  0.10259837    -0.29000
H131        H  0.24285248  0.22371819  0.14206965     0.15200
H132        H  0.21528606  0.32268802  0.10337072     0.15800
C133        C  0.26829599  0.27513621  0.27210403    -0.13800
C134        C  0.27505573  0.26386310  0.22290296    -0.29000
H135        H  0.24171266  0.30369207  0.28485551     0.15200
H136        H  0.30220095  0.23589459  0.21000556     0.15800
C137        C  0.23663893  0.23319992  0.47304922    -0.13800
C138        C  0.23772609  0.23257266  0.02248002    -0.29000
H139        H  0.21148708  0.25793741  0.45799327     0.15200
H140        H  0.26302734  0.20781516  0.03732681     0.15800
C141        C  0.28815408  0.21486940  0.39218540    -0.13800
C142        C  0.26874468  0.23589321  0.35433515    -0.29000
H143        H  0.32845483  0.21319605  0.39031977     0.15200
H144        H  0.22893785  0.23800804  0.35453641     0.15800
C145        C  0.25819387  0.19028911  0.93564455     0.00200
C146        C  0.30160380  0.25707594  0.81085019     0.00200
C147        C  0.25765582  0.29523212  0.68168448     0.00200
C148        C  0.19469502  0.25485885  0.56064067     0.00200
C149        C  0.44880472  0.00824114  0.80908445     0.00200
C150        C  0.00276774  0.43719154  0.68470263     0.00200
O151        O  0.17956624  0.33015648  0.51842098    -0.55200
C152        C  0.08344274  0.45531635  0.53767201     0.77500
O153        O  0.07904434  0.33740346  0.41111225    -0.56300
C154        C  0.16161223  0.29128377  0.53808345     0.77400
C155        C  0.99846493  0.33893856  0.50145316     0.79800
Cd156      Cd  0.10101123  0.35989463  0.49113581     1.37500
O157        O  0.07853001  0.41514559  0.55964355    -0.55200
O158        O  0.03020428  0.30978653  0.51511417    -0.54000
C159        C  0.12021069  0.31516702  0.90550704     0.79800
O160        O  0.01443017  0.37596602  0.47792891    -0.56300
O161        O  0.10862008  0.45310310  0.49576424    -0.54800
O162        O  0.11488444  0.28572730  0.53908150    -0.54800
O163        O  0.15723999  0.33354875  0.42071324    -0.54000
O164        O  0.17421259  0.15694995  0.94978769    -0.55200
C165        C  0.54683538  0.08107599  0.92345890     0.77500
O166        O  0.13805872  0.24042439  0.85858734    -0.56300
C167        C  0.21239013  0.16237707  0.91932920     0.77400
C168        C  0.04957634  0.16992331  0.82136685     0.79800
Cd169      Cd  0.11504352  0.15864607  0.88972829     1.37500
O170        O  0.07690094  0.07597569  0.88448900    -0.53600
O171        O  0.09025984  0.14737518  0.80720938    -0.54000
C172        C  0.11817849  0.26215929  0.89724249     0.79800
O173        O  0.04419708  0.19055195  0.86368271    -0.56300
O174        O  0.55349531  0.11934612  0.95050314    -0.54800
O175        O  0.20692476  0.15119299  0.87455333    -0.54800
O176        O  0.09639203  0.23592432  0.93066498    -0.54000
O177        O  0.39762257  0.08210291  0.81212637    -0.55200
C178        C  0.34074930  0.21914651  0.79118819     0.77500
O179        O  0.00760928  0.14575011  0.75259095    -0.56300
C180        C  0.42442450  0.05106145  0.78598674     0.77400
C181        C  0.42722978  0.18877277  0.66400397     0.79800
Cd182      Cd  0.41700584  0.14862055  0.75433509     1.37500
O183        O  0.32921159  0.17651411  0.77469284    -0.55200
O184        O  0.38986569  0.16080845  0.67410939    -0.54000
C185        C  0.50650147  0.16800690  0.79426335     0.79800
O186        O  0.46416023  0.18491002  0.68795162    -0.56300
O187        O  0.38674722  0.22760781  0.79257247    -0.54800
O188        O  0.43480768  0.06118815  0.74136945    -0.54800
O189        O  0.46520290  0.18453961  0.81392930    -0.54000
O190        O  0.43139476  0.41344322  0.64146813    -0.55200
C191        C  0.30476394  0.32144162  0.65968441     0.77500
O192        O  0.43343437  0.29242847  0.53704354    -0.56300
C193        C  0.96902035  0.40054560  0.65979285     0.77400
C194        C  0.42351316  0.23259103  0.63650977     0.79800
Cd195      Cd  0.40393756  0.33002248  0.61404974     1.37500
O196        O  0.34121054  0.32902913  0.68451745    -0.55200
O197        O  0.45552255  0.26675726  0.63937435    -0.54000
C198        C  0.44779742  0.33365640  0.52111035     0.79800
O199        O  0.38446301  0.24210295  0.61734050    -0.56300
O200        O  0.31272088  0.32999825  0.61435382    -0.54800
O201        O  0.97702994  0.35458046  0.65710633    -0.54800
O202        O  0.42368042  0.37166566  0.53747651    -0.54000
C203        C  0.05583878  0.50159191  0.55949756     0.00200
C204        C  0.50514992  0.04370575  0.93649708     0.00200
O205        O  0.33383897  0.17095337  0.97285047    -0.55200
C206        C  0.45651275  0.06973924  0.95685514     0.77500
O207        O  0.34183367  0.07232721  0.08951270    -0.56300
C208        C  0.29320946  0.15563195  0.95804213     0.77400
C209        C  0.32863451  0.99287786  0.99278568     0.79800
Cd210      Cd  0.35902297  0.09129029  0.00502423     1.37500
O211        O  0.41692088  0.06322819  0.93665198    -0.55200
O212        O  0.29927283  0.02833689  0.98946805    -0.54000
C213        C  0.32129950  0.11398609  0.09502275     0.79800
O214        O  0.36813198  0.50173090  0.01196147    -0.56300
O215        O  0.45202304  0.09621087  0.99621075    -0.54800
O216        O  0.28451188  0.10990167  0.96188809    -0.54800
O217        O  0.34301826  0.14974342  0.07336560    -0.54000
O218        O  0.15880293  0.17317845  0.55002918    -0.55200
C219        C  0.09195526  0.54091194  0.57577600     0.77500
O220        O  0.24092927  0.13112866  0.64266985    -0.56300
C221        C  0.16514570  0.20947641  0.57943713     0.77400
C222        C  0.16467792  0.04329593  0.67924964     0.79800
Cd223      Cd  0.16113809  0.11162324  0.61079950     1.37500
O224        O  0.07798574  0.07435407  0.60820894    -0.55200
O225        O  0.13779991  0.08120006  0.69205673    -0.54000
C226        C  0.26520506  0.11542462  0.60327152     0.79800
O227        O  0.19329758  0.04338605  0.63989221    -0.56300
O228        O  0.13580739  0.54524512  0.55439917    -0.54800
O229        O  0.15382175  0.20207768  0.62488732    -0.54800
O230        O  0.24102015  0.09874258  0.56873095    -0.54000
O231        O  0.08455132  0.39894565  0.67368084    -0.55200
C232        C  0.21707917  0.33176673  0.70060829     0.77500
O233        O  0.13188242  0.99258116  0.74330220    -0.56300
C234        C  0.04659831  0.40999192  0.70291154     0.77400
C235        C  0.18642080  0.41711150  0.82247884     0.79800
Cd236      Cd  0.14244681  0.40340193  0.73721662     1.37500
O237        O  0.17532498  0.31801213  0.72164702    -0.55200
O238        O  0.16012579  0.37829520  0.81816757    -0.54000
C239        C  0.16023762  0.49744222  0.70349601     0.79800
O240        O  0.17794795  0.45324538  0.79731944    -0.56300
O241        O  0.22219096  0.37749147  0.69379349    -0.54800
O242        O  0.05034318  0.40320007  0.74800746    -0.54800
O243        O  0.18179797  0.45947378  0.68319912    -0.54000
O244        O  0.41987795  0.43257531  0.84913130    -0.55200
C245        C  0.32560316  0.30450927  0.83008182     0.77500
O246        O  0.28646784  0.44478381  0.93783889    -0.56300
C247        C  0.40903433  0.97093516  0.82845772     0.77400
C248        C  0.23256197  0.41686145  0.84508815     0.79800
Cd249      Cd  0.33090054  0.40398265  0.86863027     1.37500
O250        O  0.33718074  0.33986929  0.80214718    -0.55200
O251        O  0.26782902  0.44575997  0.83041795    -0.54000
C252        C  0.32312482  0.44806698  0.96248588     0.79800
O253        O  0.24186840  0.38405212  0.87407097    -0.56300
O254        O  0.32853724  0.31364972  0.87545830    -0.54800
O255        O  0.36354415  0.97560379  0.82216722    -0.54800
O256        O  0.35934573  0.41920737  0.95042821    -0.54000
C257        C  0.52216353  0.01052161  0.97603510    -0.13800
C258        C  0.02836743  0.52753193  0.52142776    -0.29000
H259        H  0.03060845  0.97235861  0.96541217     0.15200
H260        H  0.51669691  0.56518523  0.53267400     0.15800
C261        C  0.02648180  0.47721769  0.64927830    -0.13800
C262        C  0.01718590  0.48357107  0.60171353    -0.29000
H263        H  0.05773744  0.49748529  0.66213366     0.15200
H264        H  0.98617494  0.46336126  0.58852701     0.15800
C265        C  0.47630283  0.03308305  0.85097497    -0.13800
C266        C  0.49392485  0.01188157  0.88990266    -0.29000
H267        H  0.47719955  0.07323038  0.85263503     0.15200
H268        H  0.49495312  0.97195532  0.89065304     0.15800
C269        C  0.97002049  0.46133897  0.72826238    -0.13800
C270        C  0.48570193  0.98387804  0.76940563    -0.29000
H271        H  0.92998271  0.45929877  0.72696372     0.15200
H272        H  0.52516941  0.98773854  0.77289171     0.15800
C273        C  0.23804986  0.26309948  0.64038750    -0.13800
C274        C  0.21712996  0.28326024  0.60281159    -0.29000
H275        H  0.24129996  0.22344199  0.64130784     0.15200
H276        H  0.21407912  0.32325917  0.60390682     0.15800
C277        C  0.26808807  0.27367557  0.77156033    -0.13800
C278        C  0.27464566  0.26249355  0.72234288    -0.29000
H279        H  0.24146338  0.30216031  0.78442374     0.15200
H280        H  0.30169979  0.23448313  0.70928210     0.15800
C281        C  0.23671350  0.23176361  0.97265403    -0.13800
C282        C  0.23691099  0.23360104  0.52290435    -0.29000
H283        H  0.21119890  0.25635339  0.95789994     0.15200
H284        H  0.26180015  0.20859343  0.53799450     0.15800
C285        C  0.28845815  0.21351806  0.89155851    -0.13800
C286        C  0.26906235  0.23520758  0.85404098    -0.29000
H287        H  0.32872775  0.21090843  0.88921582     0.15200
H288        H  0.22921432  0.23811788  0.85478231     0.15800
C289        C  0.25790309  0.69182593  0.43630177     0.00200
C290        C  0.30164914  0.75804208  0.31152977     0.00200
C291        C  0.25813352  0.79583239  0.18201208     0.00200
C292        C  0.19605526  0.75384019  0.06075482     0.00200
C293        C  0.44904844  0.50932264  0.30786340     0.00200
C294        C  0.00348341  0.93703765  0.18483478     0.00200
O295        O  0.17966525  0.82951272  0.01997041    -0.55200
C296        C  0.08325405  0.95486847  0.04006582     0.77500
O297        O  0.07958493  0.83751337  0.91363656    -0.56300
C298        C  0.16227307  0.79013845  0.03898947     0.77400
C299        C  0.99838613  0.83912418  0.00213279     0.79800
Cd300      Cd  0.10091148  0.85934205  0.99386396     1.37500
O301        O  0.07655656  0.91480906  0.06206621    -0.55200
O302        O  0.02934332  0.80972029  0.01683301    -0.54000
C303        C  0.11980671  0.81488613  0.40297107     0.79800
O304        O  0.01529610  0.87592290  0.97879285    -0.56300
O305        O  0.10977910  0.95209282  0.99891793    -0.54800
O306        O  0.11551608  0.78427486  0.04046217    -0.54800
O307        O  0.15767806  0.83390865  0.92379670    -0.54000
O308        O  0.17316077  0.65990987  0.45021109    -0.55200
C309        C  0.54634281  0.58182151  0.42375236     0.77500
O310        O  0.13865194  0.73950591  0.35730280    -0.56300
C311        C  0.21194145  0.66385993  0.42019301     0.77400
C312        C  0.04916805  0.66821634  0.32039740     0.79800
Cd313      Cd  0.11475222  0.65826282  0.38909142     1.37500
O314        O  0.07980784  0.57390445  0.38782965    -0.53600
O315        O  0.08987668  0.64567415  0.30628962    -0.54000
C316        C  0.11737660  0.76181712  0.39500874     0.79800
O317        O  0.04383662  0.68889201  0.36263243    -0.56300
O318        O  0.55024294  0.62222329  0.44838062    -0.54800
O319        O  0.20708824  0.65108756  0.37564315    -0.54800
O320        O  0.09430759  0.73607664  0.42810576    -0.54000
O321        O  0.39689934  0.58245344  0.31054402    -0.55200
C322        C  0.34062333  0.71995309  0.29175044     0.77500
O323        O  0.00691447  0.64509861  0.25139855    -0.56300
C324        C  0.42436051  0.55181976  0.28455292     0.77400
C325        C  0.42700214  0.69087675  0.16377448     0.79800
Cd326      Cd  0.41649490  0.64937294  0.25353895     1.37500
O327        O  0.32886276  0.67770710  0.27444723    -0.55200
O328        O  0.38968708  0.66265212  0.17319418    -0.54000
C329        C  0.50663253  0.66684189  0.29277262     0.79800
O330        O  0.46343818  0.68724506  0.18840411    -0.56300
O331        O  0.38663694  0.72784803  0.29373184    -0.54800
O332        O  0.43491531  0.56205690  0.23997892    -0.54800
O333        O  0.46571170  0.68429364  0.31243708    -0.54000
O334        O  0.43095595  0.91473307  0.14208002    -0.55200
C335        C  0.30516336  0.82232726  0.16037577     0.77500
O336        O  0.43151091  0.79356815  0.03642236    -0.56300
C337        C  0.96987314  0.90087986  0.15907814     0.77400
C338        C  0.42378169  0.73456154  0.13601774     0.79800
Cd339      Cd  0.40361821  0.83162985  0.11373806     1.37500
O340        O  0.34248961  0.82725102  0.18439557    -0.55200
O341        O  0.45481098  0.76933856  0.14066409    -0.54000
C342        C  0.44697793  0.83470370  0.02109799     0.79800
O343        O  0.38584721  0.74325461  0.11468109    -0.56300
O344        O  0.31193419  0.83410529  0.11581078    -0.54800
O345        O  0.97763815  0.85487486  0.15592455    -0.54800
O346        O  0.42337201  0.87305992  0.03733648    -0.54000
C347        C  0.05647042  0.00194611  0.06074755     0.00200
C348        C  0.50425344  0.54479073  0.43627559     0.00200
O349        O  0.33369150  0.67296169  0.47350044    -0.55200
C350        C  0.45571747  0.57100721  0.45686006     0.77500
O351        O  0.33941466  0.57338578  0.59021525    -0.56300
C352        C  0.29307116  0.65745783  0.45873996     0.77400
C353        C  0.32809515  0.49550320  0.49197075     0.79800
Cd354      Cd  0.35841479  0.59328104  0.50587914     1.37500
O355        O  0.41593082  0.56422792  0.43709365    -0.55200
O356        O  0.29859287  0.53103847  0.48954239    -0.54000
C357        C  0.31906818  0.61513112  0.59608402     0.79800
O358        O  0.36825346  0.00405717  0.51166883    -0.56300
O359        O  0.45151510  0.59792166  0.49598673    -0.54800
O360        O  0.28442236  0.61176487  0.46269734    -0.54800
O361        O  0.34118740  0.65095974  0.57490703    -0.54000
O362        O  0.15958487  0.67242411  0.05039811    -0.55200
C363        C  0.09321807  0.04082045  0.07658947     0.77500
O364        O  0.24370749  0.63175604  0.14066279    -0.56300
C365        C  0.16697575  0.70839622  0.07984620     0.77400
C366        C  0.16604439  0.54366382  0.18090257     0.79800
Cd367      Cd  0.16346402  0.61063992  0.11075543     1.37500
O368        O  0.08081431  0.57243733  0.11090767    -0.55200
O369        O  0.13806585  0.58108511  0.19204629    -0.54000
C370        C  0.26764509  0.61360055  0.10216895     0.79800
O371        O  0.19637027  0.54396343  0.14274888    -0.56300
O372        O  0.13605836  0.04639090  0.05326854    -0.54800
O373        O  0.15681655  0.70071848  0.12535195    -0.54800
O374        O  0.24312025  0.59470379  0.06884845    -0.54000
O375        O  0.08454204  0.89726143  0.17445644    -0.55200
C376        C  0.21712113  0.83208023  0.20043418     0.77500
O377        O  0.12946860  0.49234315  0.24279158    -0.56300
C378        C  0.04677954  0.90939769  0.20352485     0.77400
C379        C  0.18663564  0.91693009  0.32270636     0.79800
Cd380      Cd  0.14248846  0.90326661  0.23786737     1.37500
O381        O  0.17564893  0.81810753  0.22191193    -0.55200
O382        O  0.16140541  0.87752323  0.31778436    -0.54000
C383        C  0.16095491  0.99755245  0.20499612     0.79800
O384        O  0.17673122  0.95342253  0.29868743    -0.56300
O385        O  0.22178294  0.87778968  0.19325511    -0.54800
O386        O  0.05049678  0.90364769  0.24879069    -0.54800
O387        O  0.18429885  0.95997396  0.18613297    -0.54000
O388        O  0.42001105  0.93427493  0.35062175    -0.55200
C389        C  0.32572199  0.80525548  0.33122708     0.77500
O390        O  0.28730650  0.94905795  0.43576077    -0.56300
C391        C  0.40945562  0.47177373  0.32695287     0.77400
C392        C  0.23303096  0.91720233  0.34474778     0.79800
Cd393      Cd  0.33121820  0.90521860  0.36842341     1.37500
O394        O  0.34090280  0.83939529  0.30298314    -0.55200
O395        O  0.26781327  0.94667783  0.33010911    -0.54000
C396        C  0.32315689  0.95119346  0.46150886     0.79800
O397        O  0.24294572  0.88428320  0.37332136    -0.56300
O398        O  0.32537331  0.81554482  0.37682058    -0.54800
O399        O  0.36419922  0.47562244  0.31940305    -0.54800
O400        O  0.35860274  0.92111852  0.45062680    -0.54000
C401        C  0.52092881  0.51110135  0.47551437    -0.13800
C402        C  0.02966603  0.02762776  0.02197277    -0.29000
H403        H  0.02888182  0.47274154  0.46445936     0.15200
H404        H  0.51932124  0.06544739  0.03235693     0.15800
C405        C  0.02805462  0.97692688  0.14993891    -0.13800
C406        C  0.01738964  0.98584878  0.10333535    -0.29000
H407        H  0.06157824  0.99405780  0.16154364     0.15200
H408        H  0.98430112  0.96881756  0.09094319     0.15800
C409        C  0.47584446  0.53454474  0.35020852    -0.13800
C410        C  0.49323415  0.51338685  0.38929997    -0.29000
H411        H  0.47626962  0.57468925  0.35204557     0.15200
H412        H  0.49459619  0.47346276  0.38975386     0.15800
C413        C  0.97047794  0.96132329  0.22812223    -0.13800
C414        C  0.48630122  0.48501257  0.26834566    -0.29000
H415        H  0.93046347  0.95838141  0.22702537     0.15200
H416        H  0.52572080  0.48903518  0.27197771     0.15800
C417        C  0.23952734  0.76310183  0.14058124    -0.13800
C418        C  0.21885951  0.78263807  0.10256285    -0.29000
H419        H  0.24307825  0.72352719  0.14193516     0.15200
H420        H  0.21565703  0.82261380  0.10338896     0.15800
C421        C  0.26852773  0.77521689  0.27217885    -0.13800
C422        C  0.27475253  0.76344933  0.22307753    -0.29000
H423        H  0.24231801  0.80413317  0.28485173     0.15200
H424        H  0.30149950  0.73510449  0.21022460     0.15800
C425        C  0.23671009  0.73346168  0.47306774    -0.13800
C426        C  0.23785847  0.73265237  0.02238758    -0.29000
H427        H  0.21162069  0.75826535  0.45801221     0.15200
H428        H  0.26337854  0.70809848  0.03719369     0.15800
C429        C  0.28813546  0.71489662  0.39219567    -0.13800
C430        C  0.26883144  0.73581483  0.35425008    -0.29000
H431        H  0.32843065  0.71327240  0.39043253     0.15200
H432        H  0.22903472  0.73791717  0.35433928     0.15800
C433        C  0.25800696  0.69002527  0.93564477     0.00200
C434        C  0.30149314  0.75714876  0.81114372     0.00200
C435        C  0.25732448  0.79526481  0.68202400     0.00200
C436        C  0.19474039  0.75506439  0.56065451     0.00200
C437        C  0.44928611  0.50834263  0.80807297     0.00200
C438        C  0.00271068  0.93711624  0.68493380     0.00200
O439        O  0.17967818  0.83041586  0.51848180    -0.55200
C440        C  0.08331243  0.95525262  0.53780758     0.77500
O441        O  0.07933361  0.83784935  0.41074391    -0.56300
C442        C  0.16170558  0.79151324  0.53807328     0.77400
C443        C  0.99872226  0.83884320  0.50108984     0.79800
Cd444      Cd  0.10118077  0.85998066  0.49092197     1.37500
O445        O  0.07828022  0.91498176  0.55960232    -0.55200
O446        O  0.03051816  0.80921497  0.51384707    -0.54000
C447        C  0.12023567  0.81485826  0.90599172     0.79800
O448        O  0.01460234  0.87638773  0.47836531    -0.56300
O449        O  0.10862998  0.95318560  0.49596540    -0.54800
O450        O  0.11499669  0.78590243  0.53892997    -0.54800
O451        O  0.15747960  0.83383132  0.42046440    -0.54000
O452        O  0.17412867  0.65641461  0.94977007    -0.55200
C453        C  0.54689468  0.58109329  0.92271457     0.77500
O454        O  0.13782241  0.74024751  0.85878554    -0.56300
C455        C  0.21224521  0.66206081  0.91928535     0.77400
C456        C  0.04915087  0.66994557  0.82156982     0.79800
Cd457      Cd  0.11485245  0.65842993  0.88977268     1.37500
O458        O  0.07659260  0.57584374  0.88435447    -0.53600
O459        O  0.08984623  0.64745380  0.80732507    -0.54000
C460        C  0.11814013  0.76187852  0.89758308     0.79800
O461        O  0.04379733  0.69042912  0.86395845    -0.56300
O462        O  0.55380677  0.61905320  0.95009804    -0.54800
O463        O  0.20672550  0.65106235  0.87448250    -0.54800
O464        O  0.09646226  0.73556771  0.93100145    -0.54000
O465        O  0.39811489  0.58220969  0.81144094    -0.55200
C466        C  0.34070598  0.71931409  0.79133673     0.77500
O467        O  0.00731905  0.64612253  0.75259906    -0.56300
C468        C  0.42490071  0.55126366  0.78515042     0.77400
C469        C  0.42718710  0.68970933  0.66399900     0.79800
Cd470      Cd  0.41715172  0.64907056  0.75406647     1.37500
O471        O  0.32926232  0.67686703  0.77430023    -0.55200
O472        O  0.38996978  0.66152021  0.67395021    -0.54000
C473        C  0.50666054  0.66862123  0.79385018     0.79800
O474        O  0.46409375  0.68600504  0.68800666    -0.56300
O475        O  0.38666438  0.72764107  0.79316846    -0.54800
O476        O  0.43525587  0.56158986  0.74058489    -0.54800
O477        O  0.46536951  0.68515544  0.81352941    -0.54000
O478        O  0.42970964  0.91415853  0.64293199    -0.55200
C479        C  0.30446264  0.82149808  0.66018074     0.77500
O480        O  0.43276054  0.79315624  0.53719103    -0.56300
C481        C  0.96901249  0.90041940  0.66001655     0.77400
C482        C  0.42330720  0.73351223  0.63655046     0.79800
Cd483      Cd  0.40335079  0.83080298  0.61425230     1.37500
O484        O  0.34130888  0.82779934  0.68470179    -0.55200
O485        O  0.45511083  0.76784736  0.63959974    -0.54000
C486        C  0.44734545  0.83433668  0.52129718     0.79800
O487        O  0.38428914  0.74279919  0.61721302    -0.56300
O488        O  0.31190362  0.83157047  0.61516580    -0.54800
O489        O  0.97703084  0.85444955  0.65738125    -0.54800
O490        O  0.42337374  0.87243351  0.53767266    -0.54000
C491        C  0.05572273  0.00150703  0.55973270     0.00200
C492        C  0.50532113  0.54356600  0.93570830     0.00200
O493        O  0.33363159  0.67076904  0.97294528    -0.55200
C494        C  0.45660703  0.56944283  0.95612547     0.77500
O495        O  0.34167518  0.57139663  0.08893161    -0.56300
C496        C  0.29306329  0.65540135  0.95803317     0.77400
C497        C  0.32868926  0.49268405  0.99222753     0.79800
Cd498      Cd  0.35910820  0.59095257  0.00464118     1.37500
O499        O  0.41695318  0.56268932  0.93607865    -0.55200
O500        O  0.29941084  0.52818474  0.98877950    -0.54000
C501        C  0.32133934  0.61313669  0.09474631     0.79800
O502        O  0.36823156  0.00203815  0.01220572    -0.56300
O503        O  0.45212690  0.59601288  0.99542024    -0.54800
O504        O  0.28451603  0.60962710  0.96166189    -0.54800
O505        O  0.34326012  0.64897897  0.07340521    -0.54000
O506        O  0.15881146  0.67344038  0.54975571    -0.55200
C507        C  0.09184240  0.04078937  0.57611377     0.77500
O508        O  0.24091318  0.63128637  0.64236248    -0.56300
C509        C  0.16515338  0.70963892  0.57928133     0.77400
C510        C  0.16487827  0.54314772  0.67863064     0.79800
Cd511      Cd  0.16127002  0.61168244  0.61031670     1.37500
O512        O  0.07822090  0.57423915  0.60816310    -0.55200
O513        O  0.13802776  0.58106567  0.69145551    -0.54000
C514        C  0.26531262  0.61560212  0.60302743     0.79800
O515        O  0.19336496  0.54317959  0.63917318    -0.56300
O516        O  0.13589549  0.04478553  0.55516064    -0.54800
O517        O  0.15380168  0.70209157  0.62469401    -0.54800
O518        O  0.24125436  0.59887634  0.56841028    -0.54000
O519        O  0.08440031  0.89876871  0.67403194    -0.55200
C520        C  0.21673907  0.83178519  0.70088609     0.77500
O521        O  0.13191718  0.49251494  0.74267524    -0.56300
C522        C  0.04647972  0.90995393  0.70324276     0.77400
C523        C  0.18633942  0.91741396  0.82271311     0.79800
Cd524      Cd  0.14223914  0.90346190  0.73751636     1.37500
O525        O  0.17511294  0.81806519  0.72221959    -0.55200
O526        O  0.15972344  0.87877920  0.81861761    -0.54000
C527        C  0.15991404  0.99750878  0.70393814     0.79800
O528        O  0.17837407  0.95338615  0.79714390    -0.56300
O529        O  0.22175064  0.87746939  0.69380787    -0.54800
O530        O  0.05021288  0.90333855  0.74837329    -0.54800
O531        O  0.18112735  0.95949957  0.68332740    -0.54000
O532        O  0.41930502  0.93292631  0.85087769    -0.55200
C533        C  0.32538921  0.80449598  0.83074791     0.77500
O534        O  0.28610379  0.94473356  0.93880746    -0.56300
C535        C  0.40951423  0.47101581  0.82742672     0.77400
C536        C  0.23222228  0.91706250  0.84573562     0.79800
Cd537      Cd  0.33043797  0.90397296  0.86951237     1.37500
O538        O  0.33796328  0.83968481  0.80288460    -0.55200
O539        O  0.26725962  0.94667127  0.83219374    -0.54000
C540        C  0.32289228  0.94812441  0.96327475     0.79800
O541        O  0.24166209  0.88345496  0.87378329    -0.56300
O542        O  0.32723680  0.81377159  0.87626540    -0.54800
O543        O  0.36389463  0.47616935  0.82195644    -0.54800
O544        O  0.35905854  0.91920328  0.95119860    -0.54000
C545        C  0.52242235  0.51040131  0.97524155    -0.13800
C546        C  0.02822402  0.02748050  0.52167744    -0.29000
H547        H  0.03030769  0.47227586  0.96549587     0.15200
H548        H  0.51796065  0.06526300  0.53265479     0.15800
C549        C  0.02648837  0.97706645  0.64947926    -0.13800
C550        C  0.01711675  0.98346215  0.60195199    -0.29000
H551        H  0.05782923  0.99724948  0.66226901     0.15200
H552        H  0.98603115  0.96335447  0.58880105     0.15800
C553        C  0.47674605  0.53304941  0.85007063    -0.13800
C554        C  0.49417626  0.51177195  0.88906133    -0.29000
H555        H  0.47771624  0.57319555  0.85178589     0.15200
H556        H  0.49511494  0.47184040  0.88980684     0.15800
C557        C  0.96997318  0.96137554  0.72841263    -0.13800
C558        C  0.48625609  0.48406342  0.76835480    -0.29000
H559        H  0.92993422  0.95924845  0.72715726     0.15200
H560        H  0.52568705  0.48787329  0.77202914     0.15800
C561        C  0.23788413  0.76318790  0.64058478    -0.13800
C562        C  0.21706901  0.78339196  0.60295445    -0.29000
H563        H  0.24113657  0.72353034  0.64146302     0.15200
H564        H  0.21396711  0.82338626  0.60411429     0.15800
C565        C  0.26804551  0.77401349  0.77190809    -0.13800
C566        C  0.27414125  0.76248777  0.72274286    -0.29000
H567        H  0.24170132  0.80275171  0.78476658     0.15200
H568        H  0.30090055  0.73421612  0.70967081     0.15800
C569        C  0.23645430  0.73149991  0.97261421    -0.13800
C570        C  0.23700110  0.73386444  0.52292744    -0.29000
H571        H  0.21071017  0.75589074  0.95792402     0.15200
H572        H  0.26185723  0.70881466  0.53800599     0.15800
C573        C  0.28827514  0.71327551  0.89160439    -0.13800
C574        C  0.26889646  0.73500176  0.85411104    -0.29000
H575        H  0.32854981  0.71076821  0.88933169     0.15200
H576        H  0.22904923  0.73787114  0.85478337     0.15800
C577        C  0.75797827  0.19184565  0.43648857     0.00200
C578        C  0.80143927  0.25803001  0.31158158     0.00200
C579        C  0.75784130  0.29601721  0.18214034     0.00200
C580        C  0.69608987  0.25392901  0.06074118     0.00200
C581        C  0.94872337  0.00914289  0.30800754     0.00200
C582        C  0.50370969  0.43726870  0.18450493     0.00200
O583        O  0.68000234  0.32938487  0.01942083    -0.55200
C584        C  0.58378880  0.45507776  0.03934662     0.77500
O585        O  0.57903529  0.33711940  0.91367624    -0.56300
C586        C  0.66246855  0.29018325  0.03870001     0.77400
C587        C  0.49875296  0.33916483  0.00250945     0.79800
Cd588      Cd  0.60122865  0.35945293  0.99344476     1.37500
O589        O  0.57777167  0.41512828  0.06162680    -0.55200
O590        O  0.52987101  0.31002895  0.01733837    -0.54000
C591        C  0.61983388  0.31510459  0.40372976     0.79800
O592        O  0.51544152  0.37582804  0.97883322    -0.56300
O593        O  0.60977610  0.45226580  0.99790622    -0.54800
O594        O  0.61570230  0.28446980  0.04021343    -0.54800
O595        O  0.65739782  0.33411443  0.92289528    -0.54000
O596        O  0.67332042  0.15979890  0.45057182    -0.55200
C597        C  0.04650070  0.08157657  0.42362386     0.77500
O598        O  0.63857043  0.23974059  0.35794517    -0.56300
C599        C  0.71198972  0.16390153  0.42043994     0.77400
C600        C  0.54875594  0.16869368  0.32141841     0.79800
Cd601      Cd  0.61469493  0.15845400  0.38968924     1.37500
O602        O  0.57924293  0.07437538  0.38743819    -0.53600
O603        O  0.58955990  0.14641348  0.30708283    -0.54000
C604        C  0.61730356  0.26203154  0.39566758     0.79800
O605        O  0.54334645  0.18899819  0.36383576    -0.56300
O606        O  0.05074620  0.12176994  0.44850693    -0.54800
O607        O  0.70698901  0.15129448  0.37587952    -0.54800
O608        O  0.59419732  0.23626155  0.42872012    -0.54000
O609        O  0.89641198  0.08215365  0.31049163    -0.55200
C610        C  0.84035209  0.21987132  0.29179763     0.77500
O611        O  0.50681544  0.14589446  0.25219610    -0.56300
C612        C  0.92403974  0.05158748  0.28459534     0.77400
C613        C  0.92671017  0.19103280  0.16394947     0.79800
Cd614      Cd  0.91622034  0.14923354  0.25366445     1.37500
O615        O  0.82854498  0.17760311  0.27458031    -0.55200
O616        O  0.88950533  0.16263632  0.17324578    -0.54000
C617        C  0.00632896  0.16663090  0.29308709     0.79800
O618        O  0.96306863  0.18755028  0.18871151    -0.56300
O619        O  0.88637594  0.22772858  0.29373799    -0.54800
O620        O  0.93479252  0.06188499  0.24005868    -0.54800
O621        O  0.96530871  0.18366850  0.31296106    -0.54000
O622        O  0.93058311  0.41475178  0.14199706    -0.55200
C623        C  0.80489356  0.32243785  0.16044381     0.77500
O624        O  0.93110893  0.29346693  0.03618598    -0.56300
C625        C  0.47007446  0.40094058  0.15898065     0.77400
C626        C  0.92346192  0.23466012  0.13607644     0.79800
Cd627      Cd  0.90328284  0.33167025  0.11352577     1.37500
O628        O  0.84240144  0.32688650  0.18424819    -0.55200
O629        O  0.95441485  0.26950489  0.14072524    -0.54000
C630        C  0.94662817  0.33453799  0.02073206     0.79800
O631        O  0.88559571  0.24322887  0.11457695    -0.56300
O632        O  0.81147156  0.33463071  0.11598894    -0.54800
O633        O  0.47781380  0.35492082  0.15614456    -0.54800
O634        O  0.92311976  0.37295334  0.03696361    -0.54000
C635        C  0.55674526  0.50198183  0.06010442     0.00200
C636        C  0.00433384  0.04462321  0.43620659     0.00200
O637        O  0.83385474  0.17286391  0.47353297    -0.55200
C638        C  0.95589575  0.07092216  0.45689919     0.77500
O639        O  0.83944584  0.07289675  0.59004105    -0.56300
C640        C  0.79318309  0.15741878  0.45883417     0.77400
C641        C  0.82823420  0.99527420  0.49179917     0.79800
Cd642      Cd  0.85856901  0.09308356  0.50581678     1.37500
O643        O  0.91615150  0.06460292  0.43695153    -0.55200
O644        O  0.79886078  0.03086031  0.48910595    -0.54000
C645        C  0.81917180  0.11466418  0.59610614     0.79800
O646        O  0.86828517  0.50374805  0.51151629    -0.56300
O647        O  0.95170850  0.09739712  0.49630662    -0.54800
O648        O  0.78449721  0.11172836  0.46278576    -0.54800
O649        O  0.84126828  0.15053125  0.57496923    -0.54000
O650        O  0.65981765  0.17241417  0.05037478    -0.55200
C651        C  0.59331439  0.54095631  0.07614138     0.77500
O652        O  0.74366807  0.13198916  0.14108122    -0.56300
C653        C  0.66697171  0.20847732  0.07979470     0.77400
C654        C  0.66591682  0.04348947  0.18078273     0.79800
Cd655      Cd  0.66358038  0.11074523  0.11086586     1.37500
O656        O  0.58100192  0.07257287  0.11100424    -0.55200
O657        O  0.63806756  0.08099208  0.19200867    -0.54000
C658        C  0.76772532  0.11381400  0.10265687     0.79800
O659        O  0.69622351  0.04375471  0.14260369    -0.56300
O660        O  0.63635377  0.54646217  0.05322876    -0.54800
O661        O  0.65665624  0.20085414  0.12529537    -0.54800
O662        O  0.74332940  0.09480651  0.06929673    -0.54000
O663        O  0.58499155  0.39795939  0.17439136    -0.55200
C664        C  0.71688028  0.33233427  0.20060618     0.77500
O665        O  0.62915921  0.99220369  0.24260967    -0.56300
C666        C  0.54699263  0.40971528  0.20330169     0.77400
C667        C  0.68634354  0.41706335  0.32312748     0.79800
Cd668      Cd  0.64236502  0.40365282  0.23822979     1.37500
O669        O  0.67545254  0.31843284  0.22222566    -0.55200
O670        O  0.66104077  0.37770840  0.31816596    -0.54000
C671        C  0.66052862  0.49826004  0.20594679     0.79800
O672        O  0.67647019  0.45363121  0.29920431    -0.56300
O673        O  0.72155724  0.37803996  0.19338160    -0.54800
O674        O  0.55039732  0.40363425  0.24857483    -0.54800
O675        O  0.68443701  0.46089630  0.18736934    -0.54000
O676        O  0.91981358  0.43432413  0.35033221    -0.55200
C677        C  0.82562071  0.30525194  0.33110908     0.77500
O678        O  0.78708579  0.44853556  0.43605072    -0.56300
C679        C  0.90916065  0.97158478  0.32713621     0.77400
C680        C  0.73281458  0.41719985  0.34501844     0.79800
Cd681      Cd  0.83108519  0.40515740  0.36838461     1.37500
O682        O  0.84024298  0.33954262  0.30283024    -0.55200
O683        O  0.76757657  0.44669193  0.33036725    -0.54000
C684        C  0.82308038  0.45080333  0.46161098     0.79800
O685        O  0.74280018  0.38417840  0.37345253    -0.56300
O686        O  0.82583576  0.31541100  0.37666997    -0.54800
O687        O  0.86391700  0.97533130  0.31950307    -0.54800
O688        O  0.85868900  0.42098287  0.45044202    -0.54000
C689        C  0.02091292  0.01084990  0.47540971    -0.13800
C690        C  0.52979501  0.52758945  0.02135022    -0.29000
H691        H  0.52910316  0.97285424  0.46504057     0.15200
H692        H  0.01902893  0.56528655  0.03231159     0.15800
C693        C  0.52823245  0.47702432  0.14939124    -0.13800
C694        C  0.51773463  0.48553143  0.10262874    -0.29000
H695        H  0.56145629  0.49461457  0.16117236     0.15200
H696        H  0.48494389  0.46799217  0.09012214     0.15800
C697        C  0.97551001  0.03442184  0.35030501    -0.13800
C698        C  0.99314663  0.01325709  0.38926222    -0.29000
H699        H  0.97583092  0.07456526  0.35216923     0.15200
H700        H  0.99459877  0.97333252  0.38963382     0.15800
C701        C  0.47075479  0.46174795  0.22775080    -0.13800
C702        C  0.98601495  0.98480290  0.26858382    -0.29000
H703        H  0.43074188  0.45903977  0.22654930     0.15200
H704        H  0.02544024  0.98901753  0.27212257     0.15800
C705        C  0.73924155  0.26330343  0.14070682    -0.13800
C706        C  0.71863991  0.28281136  0.10264192    -0.29000
H707        H  0.74286058  0.22373418  0.14202714     0.15200
H708        H  0.71532512  0.32277786  0.10347459     0.15800
C709        C  0.76820599  0.27518919  0.27229832    -0.13800
C710        C  0.77445332  0.26355563  0.22317398    -0.29000
H711        H  0.74198679  0.30407952  0.28502895     0.15200
H712        H  0.80121382  0.23523162  0.21028492     0.15800
C713        C  0.73682482  0.23344590  0.47335125    -0.13800
C714        C  0.73804492  0.23269571  0.02260347    -0.29000
H715        H  0.71177581  0.25835386  0.45837989     0.15200
H716        H  0.76347735  0.20815126  0.03755208     0.15800
C717        C  0.78812385  0.21493119  0.39232377    -0.13800
C718        C  0.76872800  0.23593303  0.35446202    -0.29000
H719        H  0.82842192  0.21313521  0.39038592     0.15200
H720        H  0.72892016  0.23817570  0.35472469     0.15800
C721        C  0.75810059  0.18970667  0.93607067     0.00200
C722        C  0.80157805  0.25667166  0.81161790     0.00200
C723        C  0.75755174  0.29453008  0.68253186     0.00200
C724        C  0.69495075  0.25498418  0.56104740     0.00200
C725        C  0.94894441  0.00830013  0.80891890     0.00200
C726        C  0.50374825  0.43603148  0.68483407     0.00200
O727        O  0.67992930  0.33058403  0.51916150    -0.55200
C728        C  0.58239608  0.45563360  0.53884629     0.77500
O729        O  0.57942149  0.33816495  0.41152747    -0.56300
C730        C  0.66194300  0.29164472  0.53867558     0.77400
C731        C  0.49913125  0.33862877  0.50127582     0.79800
Cd732      Cd  0.60127678  0.36030503  0.49179595     1.37500
O733        O  0.57588819  0.41523334  0.56018221    -0.55200
O734        O  0.53096093  0.30948151  0.51479500    -0.54000
C735        C  0.61981058  0.31473921  0.90562030     0.79800
O736        O  0.51491684  0.37589209  0.47801488    -0.56300
O737        O  0.60911161  0.45352612  0.49774062    -0.54800
O738        O  0.61520438  0.28619551  0.53971073    -0.54800
O739        O  0.65752614  0.33395167  0.42126719    -0.54000
O740        O  0.67394990  0.15675141  0.95018758    -0.55200
C741        C  0.04698957  0.08126110  0.92325934     0.77500
O742        O  0.63793387  0.24001805  0.85877138    -0.56300
C743        C  0.71223399  0.16185031  0.91979356     0.77400
C744        C  0.54917498  0.16978488  0.82183463     0.79800
Cd745      Cd  0.61490082  0.15830083  0.88997988     1.37500
O746        O  0.57693266  0.07558961  0.88483855    -0.53600
O747        O  0.58996667  0.14749883  0.80749715    -0.54000
C748        C  0.61796506  0.26173964  0.89739897     0.79800
O749        O  0.54370416  0.19004238  0.86431579    -0.56300
O750        O  0.05376623  0.11943632  0.95039996    -0.54800
O751        O  0.70681629  0.15051522  0.87503580    -0.54800
O752        O  0.59625286  0.23550485  0.93085706    -0.54000
O753        O  0.89783313  0.08223008  0.81209475    -0.55200
C754        C  0.84080740  0.21890170  0.79179704     0.77500
O755        O  0.50743013  0.14603068  0.75281714    -0.56300
C756        C  0.92451843  0.05115096  0.78588166     0.77400
C757        C  0.92697056  0.18950728  0.66408387     0.79800
Cd758      Cd  0.91713891  0.14880284  0.75432671     1.37500
O759        O  0.82936240  0.17638151  0.77495384    -0.55200
O760        O  0.88971472  0.16140505  0.67419143    -0.54000
C761        C  0.00686274  0.16805415  0.79386473     0.79800
O762        O  0.96387570  0.18581510  0.68809421    -0.56300
O763        O  0.88677758  0.22738604  0.79336232    -0.54800
O764        O  0.93479484  0.06129341  0.74125118    -0.54800
O765        O  0.96567196  0.18487264  0.81349370    -0.54000
O766        O  0.92957829  0.41406242  0.64284165    -0.55200
C767        C  0.80475963  0.32080080  0.66088973     0.77500
O768        O  0.93238753  0.29295656  0.53701845    -0.56300
C769        C  0.47005010  0.39959563  0.65959022     0.77400
C770        C  0.92321801  0.23320675  0.63638439     0.79800
Cd771      Cd  0.90331738  0.33058318  0.61422900     1.37500
O772        O  0.84213662  0.32546709  0.68489469    -0.55200
O773        O  0.95509242  0.26750411  0.63934337    -0.54000
C774        C  0.94702858  0.33415636  0.52120414     0.79800
O775        O  0.88425423  0.24249358  0.61693172    -0.56300
O776        O  0.81156010  0.33274937  0.61634985    -0.54800
O777        O  0.47709171  0.35346006  0.65804064    -0.54800
O778        O  0.92303376  0.37223374  0.53758348    -0.54000
C779        C  0.55511585  0.50225930  0.56023949     0.00200
C780        C  0.00537874  0.04377484  0.93631919     0.00200
O781        O  0.83376289  0.17047077  0.97324892    -0.55200
C782        C  0.95667983  0.06966440  0.95678555     0.77500
O783        O  0.84192426  0.07185775  0.08973889    -0.56300
C784        C  0.79308670  0.15512008  0.95856188     0.77400
C785        C  0.82871848  0.99254467  0.99259070     0.79800
Cd786      Cd  0.85914189  0.09086979  0.00524915     1.37500
O787        O  0.91705736  0.06305777  0.93666214    -0.55200
O788        O  0.79951203  0.02810157  0.98916667    -0.54000
C789        C  0.82141961  0.11353579  0.09528665     0.79800
O790        O  0.86803825  0.50198998  0.01257247    -0.56300
O791        O  0.95215659  0.09604914  0.99619429    -0.54800
O792        O  0.78439100  0.10940374  0.96248277    -0.54800
O793        O  0.84315601  0.14928920  0.07363785    -0.54000
O794        O  0.65870649  0.17350381  0.55015666    -0.55200
C795        C  0.59139759  0.54173350  0.57579597     0.77500
O796        O  0.74115900  0.13080300  0.64269354    -0.56300
C797        C  0.66521735  0.20964615  0.57969241     0.77400
C798        C  0.66500422  0.04260659  0.67820958     0.79800
Cd799      Cd  0.66135462  0.11168803  0.61060757     1.37500
O800        O  0.57845205  0.07366654  0.60966184    -0.55200
O801        O  0.63872711  0.08078188  0.69160485    -0.54000
C802        C  0.76542833  0.11521494  0.60325035     0.79800
O803        O  0.69302912  0.04253122  0.63843790    -0.56300
O804        O  0.63421937  0.54750674  0.55251158    -0.54800
O805        O  0.65393194  0.20208042  0.62511545    -0.54800
O806        O  0.74124079  0.09872401  0.56864353    -0.54000
O807        O  0.58394531  0.39472363  0.67516738    -0.55200
C808        C  0.71693102  0.33095900  0.70138804     0.77500
O809        O  0.63267112  0.99220878  0.74263918    -0.56300
C810        C  0.54662510  0.40823958  0.70414984     0.77400
C811        C  0.68684471  0.41706035  0.82274926     0.79800
Cd812      Cd  0.64242127  0.40248941  0.73783122     1.37500
O813        O  0.67528558  0.31715295  0.72262787    -0.55200
O814        O  0.66012831  0.37843533  0.81910145    -0.54000
C815        C  0.65980719  0.49617538  0.70250383     0.79800
O816        O  0.67892341  0.45276981  0.79682030    -0.56300
O817        O  0.72198924  0.37666227  0.69447824    -0.54800
O818        O  0.55052998  0.40357114  0.74954251    -0.54800
O819        O  0.68083886  0.45794110  0.68221481    -0.54000
O820        O  0.91964942  0.43258292  0.85047775    -0.55200
C821        C  0.82545114  0.30405103  0.83115164     0.77500
O822        O  0.78639299  0.44486716  0.93852609    -0.56300
C823        C  0.90923765  0.97092991  0.82828264     0.77400
C824        C  0.73278990  0.41687319  0.84564522     0.79800
Cd825      Cd  0.83080687  0.40366521  0.86958280     1.37500
O826        O  0.83803353  0.33916488  0.80321287    -0.55200
O827        O  0.76826757  0.44544963  0.83081761    -0.54000
C828        C  0.82301203  0.44818081  0.96322587     0.79800
O829        O  0.74173506  0.38432914  0.87504594    -0.56300
O830        O  0.82736132  0.31341140  0.87664448    -0.54800
O831        O  0.86374451  0.97554804  0.82201118    -0.54800
O832        O  0.85916605  0.41918150  0.95136885    -0.54000
C833        C  0.02248331  0.01055592  0.97579617    -0.13800
C834        C  0.52758398  0.52773517  0.52193835    -0.29000
H835        H  0.53012491  0.97227736  0.96573580     0.15200
H836        H  0.01816407  0.56521395  0.53200630     0.15800
C837        C  0.52908608  0.47502632  0.64915657    -0.13800
C838        C  0.51681470  0.48584843  0.60352555    -0.29000
H839        H  0.56468457  0.48927633  0.65855405     0.15200
H840        H  0.48184698  0.47182605  0.59259026     0.15800
C841        C  0.97647179  0.03314156  0.85080792    -0.13800
C842        C  0.99415624  0.01195345  0.88971074    -0.29000
H843        H  0.97733530  0.07328949  0.85249569     0.15200
H844        H  0.99522850  0.97202714  0.89043978     0.15800
C845        C  0.47070471  0.46118468  0.72761200    -0.13800
C846        C  0.98579080  0.98392780  0.76919150    -0.29000
H847        H  0.43069721  0.45887036  0.72619787     0.15200
H848        H  0.02525732  0.98761803  0.77273962     0.15800
C849        C  0.73828858  0.26265340  0.64087504    -0.13800
C850        C  0.71749906  0.28307730  0.60333771    -0.29000
H851        H  0.74147827  0.22298029  0.64159544     0.15200
H852        H  0.71442658  0.32307534  0.60467005     0.15800
C853        C  0.76811995  0.27343114  0.77239359    -0.13800
C854        C  0.77404512  0.26163669  0.72328511    -0.29000
H855        H  0.74192083  0.30231854  0.78518389     0.15200
H856        H  0.80062443  0.23318344  0.71027343     0.15800
C857        C  0.73673062  0.23138776  0.97283197    -0.13800
C858        C  0.73707769  0.23367826  0.52321112    -0.29000
H859        H  0.71109706  0.25578865  0.95798852     0.15200
H860        H  0.76185139  0.20848532  0.53821156     0.15800
C861        C  0.78840311  0.21274431  0.89197634    -0.13800
C862        C  0.76900569  0.23455317  0.85457237    -0.29000
H863        H  0.82867299  0.21011149  0.88963480     0.15200
H864        H  0.72915398  0.23751729  0.85533119     0.15800
C865        C  0.75796266  0.69148814  0.43627993     0.00200
C866        C  0.80138083  0.75794414  0.31153728     0.00200
C867        C  0.75802123  0.79615245  0.18203245     0.00200
C868        C  0.69596868  0.75403431  0.06079239     0.00200
C869        C  0.94893527  0.50936404  0.30787996     0.00200
C870        C  0.50372533  0.93698666  0.18498860     0.00200
O871        O  0.67989228  0.82962030  0.01972159    -0.55200
C872        C  0.58353672  0.95507977  0.03990163     0.77500
O873        O  0.57951269  0.83778756  0.91351985    -0.56300
C874        C  0.66235721  0.79035053  0.03886046     0.77400
C875        C  0.49874526  0.83903552  0.00254120     0.79800
Cd876      Cd  0.60117380  0.85957361  0.99364619     1.37500
O877        O  0.57727694  0.91503382  0.06197935    -0.55200
O878        O  0.52990522  0.80964387  0.01690239    -0.54000
C879        C  0.61956615  0.81472428  0.40342013     0.79800
O880        O  0.51538827  0.87598230  0.97929423    -0.56300
O881        O  0.60972401  0.95238045  0.99856307    -0.54800
O882        O  0.61559721  0.78460717  0.04032281    -0.54800
O883        O  0.65768741  0.83416131  0.92334623    -0.54000
O884        O  0.67327574  0.65943993  0.45027491    -0.55200
C885        C  0.04653938  0.58182205  0.42356544     0.77500
O886        O  0.63869409  0.73941380  0.35774674    -0.56300
C887        C  0.71198916  0.66352830  0.42019488     0.77400
C888        C  0.54935965  0.66818963  0.32028392     0.79800
Cd889      Cd  0.61469295  0.65811109  0.38923912     1.37500
O890        O  0.57958578  0.57385182  0.38800965    -0.53600
O891        O  0.58992154  0.64530986  0.30639899    -0.54000
C892        C  0.61719558  0.76166149  0.39537503     0.79800
O893        O  0.54409140  0.68912582  0.36239270    -0.56300
O894        O  0.05037059  0.62223121  0.44820185    -0.54800
O895        O  0.70702647  0.65094939  0.37562586    -0.54800
O896        O  0.59398307  0.73585369  0.42833239    -0.54000
O897        O  0.89665294  0.58238987  0.31047108    -0.55200
C898        C  0.84041071  0.71992669  0.29177441     0.77500
O899        O  0.50704043  0.64470766  0.25145009    -0.56300
C900        C  0.92419795  0.55180103  0.28451546     0.77400
C901        C  0.92681603  0.69141868  0.16398847     0.79800
Cd902      Cd  0.91632432  0.64944951  0.25360834     1.37500
O903        O  0.82870002  0.67768630  0.27442415    -0.55200
O904        O  0.88968802  0.66289941  0.17319324    -0.54000
C905        C  0.00639894  0.66681115  0.29294353     0.79800
O906        O  0.96310301  0.68810060  0.18887213    -0.56300
O907        O  0.88640247  0.72784946  0.29386167    -0.54800
O908        O  0.93485018  0.56208620  0.23995847    -0.54800
O909        O  0.96537836  0.68383942  0.31282508    -0.54000
O910        O  0.93068942  0.91485062  0.14194448    -0.55200
C911        C  0.80493591  0.82272219  0.16017368     0.77500
O912        O  0.93082242  0.79389322  0.03569336    -0.56300
C913        C  0.47003760  0.90078424  0.15939948     0.77400
C914        C  0.92355791  0.73493703  0.13596619     0.79800
Cd915      Cd  0.90336553  0.83190049  0.11325092     1.37500
O916        O  0.84229506  0.82793333  0.18410166    -0.55200
O917        O  0.95465018  0.76971460  0.14027560    -0.54000
C918        C  0.94651139  0.83498727  0.02044200     0.79800
O919        O  0.88556064  0.74351803  0.11468484    -0.56300
O920        O  0.81164198  0.83416187  0.11550591    -0.54800
O921        O  0.47764115  0.85474386  0.15659900    -0.54800
O922        O  0.92308846  0.87341597  0.03677751    -0.54000
C923        C  0.55663034  0.00202423  0.06075562     0.00200
C924        C  0.00445826  0.54475778  0.43604990     0.00200
O925        O  0.83374261  0.67262634  0.47354519    -0.55200
C926        C  0.95595799  0.57092033  0.45678718     0.77500
O927        O  0.83954655  0.57285382  0.59001658    -0.56300
C928        C  0.79318116  0.65709709  0.45867314     0.77400
C929        C  0.82864319  0.49492519  0.49203810     0.79800
Cd930      Cd  0.85862547  0.59287251  0.50575583     1.37500
O931        O  0.91622417  0.56454564  0.43682906    -0.55200
O932        O  0.79900406  0.53034603  0.48961799    -0.54000
C933        C  0.81915424  0.61457458  0.59587443     0.79800
O934        O  0.86773950  0.00388798  0.51157921    -0.56300
O935        O  0.95172377  0.59734338  0.49623037    -0.54800
O936        O  0.78464327  0.61136049  0.46246689    -0.54800
O937        O  0.84125196  0.65044888  0.57474712    -0.54000
O938        O  0.65939607  0.67266193  0.05046477    -0.55200
C939        C  0.59335426  0.04092621  0.07659374     0.77500
O940        O  0.74337885  0.63228452  0.14091495    -0.56300
C941        C  0.66676885  0.70865492  0.07989093     0.77400
C942        C  0.66583966  0.54393168  0.18107149     0.79800
Cd943      Cd  0.66325715  0.61090547  0.11085979     1.37500
O944        O  0.58074180  0.57260584  0.11049005    -0.55200
O945        O  0.63775667  0.58128714  0.19215717    -0.54000
C946        C  0.76742127  0.61402278  0.10253029     0.79800
O947        O  0.69612339  0.54423782  0.14289233    -0.56300
O948        O  0.63628273  0.04639641  0.05342198    -0.54800
O949        O  0.65654608  0.70101438  0.12539653    -0.54800
O950        O  0.74300323  0.59490192  0.06924125    -0.54000
O951        O  0.58457173  0.89690788  0.17485382    -0.55200
C952        C  0.71699743  0.83233382  0.20066220     0.77500
O953        O  0.62925515  0.49252233  0.24288049    -0.56300
C954        C  0.54679993  0.90920184  0.20383172     0.77400
C955        C  0.68584540  0.91702307  0.32331327     0.79800
Cd956      Cd  0.64217281  0.90332432  0.23835013     1.37500
O957        O  0.67560560  0.81826654  0.22223396    -0.55200
O958        O  0.66068696  0.87758282  0.31832485    -0.54000
C959        C  0.66036087  0.99779147  0.20559800     0.79800
O960        O  0.67591280  0.95354428  0.29934981    -0.56300
O961        O  0.72155963  0.87807531  0.19360936    -0.54800
O962        O  0.55031289  0.90344832  0.24913038    -0.54800
O963        O  0.68403745  0.96031076  0.18698964    -0.54000
O964        O  0.91937462  0.93432283  0.35070023    -0.55200
C965        C  0.82532348  0.80524508  0.33115548     0.77500
O966        O  0.78666157  0.94894621  0.43578384    -0.56300
C967        C  0.90944893  0.47176709  0.32709669     0.77400
C968        C  0.73231064  0.91725317  0.34519123     0.79800
Cd969      Cd  0.83062177  0.90519426  0.36839149     1.37500
O970        O  0.83999537  0.83953732  0.30289813    -0.55200
O971        O  0.76702836  0.94678271  0.33051232    -0.54000
C972        C  0.82257504  0.95111878  0.46144899     0.79800
O973        O  0.74236546  0.88421715  0.37357976    -0.56300
O974        O  0.82529750  0.81545059  0.37673336    -0.54800
O975        O  0.86412294  0.47564048  0.31983392    -0.54800
O976        O  0.85805797  0.92110546  0.45048278    -0.54000
C977        C  0.02109116  0.51092682  0.47515999    -0.13800
C978        C  0.52960876  0.02769601  0.02211310    -0.29000
H979        H  0.52950227  0.47309080  0.46470498     0.15200
H980        H  0.01927830  0.06533385  0.03227802     0.15800
C981        C  0.52853727  0.97663863  0.14992620    -0.13800
C982        C  0.51770236  0.98574785  0.10341987    -0.29000
H983        H  0.56228005  0.99348765  0.16132680     0.15200
H984        H  0.48443171  0.96896804  0.09117097     0.15800
C985        C  0.97579459  0.53464758  0.35010615    -0.13800
C986        C  0.99337213  0.51345511  0.38905892    -0.29000
H987        H  0.97612201  0.57479115  0.35198602     0.15200
H988        H  0.99481937  0.47352831  0.38939506     0.15800
C989        C  0.47083089  0.96158543  0.22817531    -0.13800
C990        C  0.98614309  0.48502140  0.26840328    -0.29000
H991        H  0.43080993  0.95881614  0.22706172     0.15200
H992        H  0.02558656  0.48922052  0.27185071     0.15800
C993        C  0.73929610  0.76338545  0.14069395    -0.13800
C994        C  0.71865180  0.78287867  0.10264665    -0.29000
H995        H  0.74285863  0.72382059  0.14207443     0.15200
H996        H  0.71541505  0.82285361  0.10346605     0.15800
C997        C  0.76818329  0.77499202  0.27218629    -0.13800
C998        C  0.77492000  0.76377205  0.22298709    -0.29000
H999        H  0.74161457  0.80354938  0.28498060     0.15200
H1000       H  0.80203106  0.73578445  0.21005361     0.15800
C1001       C  0.73676598  0.73312229  0.47305777    -0.13800
C1002       C  0.73779873  0.73272300  0.02252420    -0.29000
H1003       H  0.71173846  0.75799493  0.45800657     0.15200
H1004       H  0.76321078  0.70810862  0.03740297     0.15800
C1005       C  0.78811973  0.71461085  0.39215183    -0.13800
C1006       C  0.76870600  0.73566743  0.35432896    -0.29000
H1007       H  0.82841846  0.71288969  0.39026335     0.15200
H1008       H  0.72890383  0.73783889  0.35456900     0.15800
C1009       C  0.75793203  0.68997412  0.93582531     0.00200
C1010       C  0.80135210  0.75675391  0.81113986     0.00200
C1011       C  0.75753730  0.79486817  0.68199482     0.00200
C1012       C  0.69489668  0.75494219  0.56065978     0.00200
C1013       C  0.94890926  0.50809175  0.80887640     0.00200
C1014       C  0.50269295  0.93708449  0.68517960     0.00200
O1015       O  0.67987503  0.83032057  0.51844786    -0.55200
C1016       C  0.58329845  0.95541276  0.53832910     0.77500
O1017       O  0.57908472  0.83766400  0.41127770    -0.56300
C1018       C  0.66188296  0.79147060  0.53812925     0.77400
C1019       C  0.49871487  0.83908817  0.50137400     0.79800
Cd1020     Cd  0.60119488  0.86011200  0.49130755     1.37500
O1021       O  0.57783454  0.91506924  0.55994267    -0.55200
O1022       O  0.53044994  0.80972753  0.51470922    -0.54000
C1023       C  0.62014746  0.81511914  0.90570745     0.79800
O1024       O  0.51467004  0.87631343  0.47815498    -0.56300
O1025       O  0.60899536  0.95337033  0.49667625    -0.54800
O1026       O  0.61513733  0.78601412  0.53921313    -0.54800
O1027       O  0.65728977  0.83372323  0.42077232    -0.54000
O1028       O  0.67384847  0.65684151  0.94988677    -0.55200
C1029       C  0.04681120  0.58107386  0.92322428     0.77500
O1030       O  0.63798965  0.74045440  0.85865649    -0.56300
C1031       C  0.71212293  0.66205195  0.91950254     0.77400
C1032       C  0.54931860  0.67037773  0.82142557     0.79800
Cd1033     Cd  0.61486686  0.65863502  0.88961898     1.37500
O1034       O  0.57663406  0.57606892  0.88379479    -0.53600
O1035       O  0.59008788  0.64804893  0.80709332    -0.54000
C1036       C  0.61802668  0.76213278  0.89730761     0.79800
O1037       O  0.54382109  0.69059131  0.86393017    -0.56300
O1038       O  0.05375037  0.61913962  0.95045607    -0.54800
O1039       O  0.70673036  0.65078272  0.87472332    -0.54800
O1040       O  0.59614864  0.73584993  0.93064163    -0.54000
O1041       O  0.89756268  0.58189041  0.81194718    -0.55200
C1042       C  0.84054221  0.71889110  0.79139278     0.77500
O1043       O  0.50757388  0.64659348  0.75242903    -0.56300
C1044       C  0.92446181  0.55092474  0.78580984     0.77400
C1045       C  0.92653222  0.68902244  0.66384422     0.79800
Cd1046     Cd  0.91684055  0.64857984  0.75420573     1.37500
O1047       O  0.82904734  0.67631617  0.77470979    -0.55200
O1048       O  0.88907245  0.66126230  0.67422089    -0.54000
C1049       C  0.00643627  0.66813499  0.79402623     0.79800
O1050       O  0.96363544  0.68488871  0.68750391    -0.56300
O1051       O  0.88652809  0.72734194  0.79290218    -0.54800
O1052       O  0.93489060  0.56115358  0.74122406    -0.54800
O1053       O  0.96514511  0.68467107  0.81370505    -0.54000
O1054       O  0.92963466  0.91391070  0.64293920    -0.55200
C1055       C  0.80475170  0.82113203  0.66038548     0.77500
O1056       O  0.93295773  0.79280615  0.53715686    -0.56300
C1057       C  0.46896651  0.90051990  0.66015120     0.77400
C1058       C  0.92288206  0.73289254  0.63635853     0.79800
Cd1059     Cd  0.90347225  0.83045224  0.61421004     1.37500
O1060       O  0.84187107  0.82638414  0.68468567    -0.55200
O1061       O  0.95488323  0.76705806  0.63939847    -0.54000
C1062       C  0.94742025  0.83399877  0.52120485     0.79800
O1063       O  0.88393355  0.74242930  0.61699572    -0.56300
O1064       O  0.81189290  0.83234525  0.61565034    -0.54800
O1065       O  0.47679513  0.85451938  0.65762615    -0.54800
O1066       O  0.92337489  0.87205088  0.53757585    -0.54000
C1067       C  0.55571453  0.00172613  0.56015046     0.00200
C1068       C  0.00515892  0.54365681  0.93631427     0.00200
O1069       O  0.83356023  0.67082836  0.97311439    -0.55200
C1070       C  0.95648975  0.56963848  0.95670098     0.77500
O1071       O  0.84163967  0.57210009  0.08956374    -0.56300
C1072       C  0.79298550  0.65540307  0.95825921     0.77400
C1073       C  0.82861256  0.49289785  0.99282260     0.79800
Cd1074     Cd  0.85900022  0.59121706  0.00511969     1.37500
O1075       O  0.91681618  0.56281059  0.93671282    -0.55200
O1076       O  0.79935492  0.52839193  0.98927325    -0.54000
C1077       C  0.82111771  0.61376405  0.09514554     0.79800
O1078       O  0.86816681  0.00151794  0.01234172    -0.56300
O1079       O  0.95205729  0.59636479  0.99589918    -0.54800
O1080       O  0.78442787  0.60964446  0.96201735    -0.54800
O1081       O  0.84286858  0.64955910  0.07357652    -0.54000
O1082       O  0.65809924  0.67371231  0.54987153    -0.55200
C1083       C  0.59180760  0.04109153  0.57637063     0.77500
O1084       O  0.74102681  0.63071583  0.64216771    -0.56300
C1085       C  0.66516955  0.70966391  0.57944459     0.77400
C1086       C  0.66460974  0.54186026  0.67750688     0.79800
Cd1087     Cd  0.66138901  0.61155760  0.61000851     1.37500
O1088       O  0.57871316  0.57352671  0.61004196    -0.55200
O1089       O  0.63845744  0.58012840  0.69083949    -0.54000
C1090       C  0.76540367  0.61501225  0.60283399     0.79800
O1091       O  0.69263179  0.54174013  0.63770987    -0.56300
O1092       O  0.63514204  0.04630321  0.55404740    -0.54800
O1093       O  0.65439253  0.70192399  0.62489579    -0.54800
O1094       O  0.74133839  0.59837379  0.56818892    -0.54000
O1095       O  0.58415879  0.89824499  0.67409864    -0.55200
C1096       C  0.71689866  0.83135309  0.70075834     0.77500
O1097       O  0.63195796  0.49163140  0.74203446    -0.56300
C1098       C  0.54645831  0.90984339  0.70343955     0.77400
C1099       C  0.68688986  0.91759474  0.82215370     0.79800
Cd1100     Cd  0.64247229  0.90312511  0.73718505     1.37500
O1101       O  0.67515053  0.81762425  0.72183161    -0.55200
O1102       O  0.65986551  0.87916179  0.81861577    -0.54000
C1103       C  0.66021688  0.99685308  0.70292853     0.79800
O1104       O  0.67934532  0.95325318  0.79603058    -0.56300
O1105       O  0.72203281  0.87704980  0.69386120    -0.54800
O1106       O  0.55045114  0.90356246  0.74858121    -0.54800
O1107       O  0.68092047  0.95866377  0.68215140    -0.54000
O1108       O  0.91957309  0.93287888  0.85061519    -0.55200
C1109       C  0.82526381  0.80415018  0.83059679     0.77500
O1110       O  0.78638838  0.94479217  0.93817087    -0.56300
C1111       C  0.90923251  0.47074188  0.82834757     0.77400
C1112       C  0.73273944  0.91721847  0.84520347     0.79800
Cd1113     Cd  0.83072673  0.90373614  0.86914386     1.37500
O1114       O  0.83781612  0.83926723  0.80264436    -0.55200
O1115       O  0.76820906  0.94597864  0.83078286    -0.54000
C1116       C  0.82300617  0.94791825  0.96288823     0.79800
O1117       O  0.74164900  0.88434642  0.87427060    -0.56300
O1118       O  0.82723491  0.81351835  0.87607492    -0.54800
O1119       O  0.86366212  0.47556121  0.82250201    -0.54800
O1120       O  0.85907539  0.91883342  0.95097686    -0.54000
C1121       C  0.02220841  0.51048551  0.97584607    -0.13800
C1122       C  0.52827959  0.02762256  0.52203609    -0.29000
H1123       H  0.53042294  0.47216403  0.96493660     0.15200
H1124       H  0.01804427  0.06517007  0.53224816     0.15800
C1125       C  0.52653670  0.97709375  0.64983741    -0.13800
C1126       C  0.51704467  0.98383453  0.60239571    -0.29000
H1127       H  0.55806051  0.99698025  0.66259827     0.15200
H1128       H  0.48580127  0.96399487  0.58925230     0.15800
C1129       C  0.97640304  0.53295185  0.85076157    -0.13800
C1130       C  0.99395363  0.51178370  0.88974337    -0.29000
H1131       H  0.97728838  0.57309899  0.85240116     0.15200
H1132       H  0.99496228  0.47185837  0.89053873     0.15800
C1133       C  0.46991608  0.96121977  0.72868238    -0.13800
C1134       C  0.98578898  0.48372591  0.76914497    -0.29000
H1135       H  0.42987280  0.95890025  0.72750882     0.15200
H1136       H  0.02524711  0.48735729  0.77275401     0.15800
C1137       C  0.73834292  0.76291626  0.64036291    -0.13800
C1138       C  0.71743455  0.78321908  0.60284234    -0.29000
H1139       H  0.74171049  0.72325135  0.64108132     0.15200
H1140       H  0.71424290  0.82320733  0.60411898     0.15800
C1141       C  0.76788244  0.77349938  0.77189124    -0.13800
C1142       C  0.77407939  0.76196841  0.72273842    -0.29000
H1143       H  0.74152402  0.80224176  0.78470057     0.15200
H1144       H  0.80084107  0.73367509  0.70972898     0.15800
C1145       C  0.73647791  0.73154033  0.97273301    -0.13800
C1146       C  0.73700688  0.73348433  0.52291418    -0.29000
H1147       H  0.71082912  0.75597982  0.95796794     0.15200
H1148       H  0.76176175  0.70833198  0.53799483     0.15800
C1149       C  0.78819688  0.71311987  0.89172929    -0.13800
C1150       C  0.76879714  0.73470646  0.85417491    -0.29000
H1151       H  0.82847441  0.71064871  0.88946250     0.15200
H1152       H  0.72895415  0.73752294  0.85483692     0.15800
loop_ 
_geom_bond_atom_site_label_1 
_geom_bond_atom_site_label_2 
_geom_bond_distance 
_geom_bond_site_symmetry_2 
_ccdc_geom_bond_type 
C1           C23   1.544       .  S
C1           C64   1.532       .  S
C1          C137   1.559       .  S
C1          C141   1.540       .  S
C2           C34   1.528       .  S
C2          C101   1.535       .  S
C2          C133   1.563       .  S
C2          C142   1.535       .  S
C3           C47   1.531       .  S
C3           C88   1.525       .  S
C3          C129   1.539       .  S
C3          C134   1.563       .  S
C4           C10   1.532       .  S
C4           C77   1.535       .  S
C4          C130   1.542       .  S
C4          C138   1.562       .  S
C5           C36   1.534       .  S
C5          C103   1.535   1_545  S
C5          C121   1.565       .  S
C5          C126   1.536   1_545  S
C6           C49   1.532   1_455  S
C6           C90   1.541       .  S
C6          C117   1.570       .  S
C6          C125   1.541   1_455  S
O7           C10   1.271       .  A
O7          Cd12   2.474   1_554  S
C8           C59   1.536       .  S
C8           O17   1.274   1_554  A
C8           O13   1.266       .  A
O9          C159   1.261       .  A
O9          Cd12   2.389       .  S
C10          O18   1.269       .  A
C11          O16   1.263   1_654  A
C11          O14   1.270   1_655  A
C11         C630   1.445       .  S
Cd12         O19   2.418       .  S
Cd12         O18   2.506   1_556  S
Cd12         O17   2.527       .  S
Cd12         O13   2.400   1_556  S
Cd12         O16   2.444       .  S
Cd12         O14   2.390   1_556  S
C15         O153   1.261       .  A
C15         O163   1.267       .  A
C15          C28   1.449       .  S
O19         C159   1.266       .  A
O20          C23   1.271       .  A
O20         Cd25   2.425       .  S
C21          C60   1.530       .  S
C21          O30   1.275       .  A
C21         O602   1.274       .  A
O22          C28   1.267       .  A
O22         Cd25   2.457       .  S
C23          O31   1.279       .  A
C24          O29   1.264       .  A
C24          O27   1.283       .  A
C24         C617   1.446       .  S
Cd25         O32   2.374       .  S
Cd25         O31   2.496       .  S
Cd25         O26   2.466       .  S
Cd25         O29   2.299       .  S
Cd25         O27   2.451       .  S
Cd25        O606   2.475       .  S
O26         C597   1.274       .  A
C28          O32   1.275       .  A
O30        Cd601   2.474       .  S
O33          C36   1.269       .  A
O33         Cd38   2.463       .  S
C34          O43   1.267       .  A
C34          O39   1.273       .  A
O35         C617   1.263       .  A
O35        Cd614   2.450   1_455  S
C36          O44   1.269       .  A
C37          O42   1.260       .  A
C37          O40   1.271       .  A
C37          C50   1.443       .  S
Cd38         O45   2.366       .  S
Cd38         O44   2.435       .  S
Cd38         O43   2.463       .  S
Cd38         O39   2.502       .  S
Cd38         O42   2.349       .  S
Cd38         O40   2.437       .  S
Cd38        O611   2.446       .  S
C41          O45   1.268       .  A
C41         O611   1.263       .  A
C41         C600   1.445       .  S
O46         C625   1.272       .  A
O46         Cd51   2.486       .  S
C47          O56   1.272       .  A
C47          O52   1.266       .  A
O48          C54   1.260       .  A
O48         Cd51   2.380       .  S
C49          O57   1.266       .  A
C49         O622   1.272       .  A
C50          O55   1.263       .  A
C50          O53   1.267       .  A
Cd51         O58   2.430       .  S
Cd51         O56   2.473       .  S
Cd51         O52   2.427       .  S
Cd51         O55   2.442       .  S
Cd51         O53   2.388       .  S
Cd51        O633   2.491       .  S
C54          O58   1.269       .  A
C54         C587   1.444       .  S
O57        Cd627   2.490       .  S
C59          C75   1.523       .  S
C59         C114   1.543       .  S
C59         C118   1.565       .  S
C60          C62   1.544       .  S
C60         C113   1.546       .  S
C60         C122   1.572       .  S
O61          C64   1.272       .  A
O61         Cd66   2.497       .  S
C62          O71   1.272       .  A
C62          O67   1.264       .  A
O63          C69   1.262       .  A
O63         Cd66   2.402       .  S
C64          O72   1.266       .  A
C65          O68   1.267   1_565  A
C65         O358   1.264   1_565  A
C65         C396   1.449       .  S
Cd66         O73   2.422       .  S
Cd66         O72   2.498       .  S
Cd66         O71   2.508       .  S
Cd66         O67   2.430       .  S
Cd66         O68   2.386       .  S
Cd66        O358   2.450       .  S
C69          O73   1.265       .  A
C69         C226   1.447       .  S
O70         C353   1.264       .  A
O70        Cd354   2.448       .  S
O74          C77   1.271       .  A
O74         Cd79   2.415       .  S
C75          O84   1.274       .  A
C75         O368   1.273       .  A
O76          C82   1.267       .  A
O76         Cd79   2.453       .  S
C77          O85   1.277       .  A
C78          O83   1.263       .  A
C78          O81   1.282       .  A
C78         C383   1.437   1_545  S
Cd79         O86   2.369       .  S
Cd79         O85   2.465       .  S
Cd79         O80   2.451       .  S
Cd79         O83   2.273       .  S
Cd79         O81   2.428       .  S
Cd79        O372   2.466       .  S
O80         C363   1.273       .  A
C82          O86   1.274       .  A
C82         C213   1.445       .  S
O84        Cd367   2.468       .  S
O87          C90   1.267       .  A
O87         Cd92   2.462       .  S
C88          O97   1.266       .  A
C88          O93   1.273       .  A
O89         C383   1.265       .  A
O89        Cd380   2.434       .  S
C90          O98   1.274       .  A
C91          O96   1.258       .  A
C91          O94   1.272       .  A
C91         C104   1.449       .  S
Cd92         O99   2.337       .  S
Cd92         O98   2.474       .  S
Cd92         O97   2.453       .  S
Cd92         O93   2.495       .  S
Cd92         O96   2.370       .  S
Cd92         O94   2.436       .  S
Cd92        O377   2.438       .  S
C95          O99   1.270       .  A
C95         O377   1.265       .  A
C95         C366   1.437       .  S
O100        C391   1.270       .  A
O100       Cd105   2.525       .  S
C101        O110   1.272       .  A
C101        O106   1.269       .  A
O102        C108   1.259       .  A
O102       Cd105   2.379       .  S
C103        O111   1.269       .  A
C103        O388   1.270       .  A
C104        O109   1.262       .  A
C104        O107   1.271       .  A
Cd105       O112   2.471       .  S
Cd105       O110   2.456       .  S
Cd105       O106   2.479       .  S
Cd105       O109   2.439       .  S
Cd105       O107   2.415       .  S
Cd105       O399   2.480       .  S
C108        O112   1.271       .  A
C108        C353   1.449       .  S
O111       Cd393   2.478       .  S
C113       C1122   1.365       .  D
C113        H691   1.083   1_545  S
C114       C1121   1.366   1_554  D
C114        H692   1.083       .  S
H115        C689   1.083   1_565  S
H116        C690   1.083       .  S
C117        C118   1.373       .  D
C117        H119   1.086       .  S
C118        H120   1.083   1_455  S
C121        C122   1.366       .  D
C121        H123   1.088       .  S
C122        H124   1.085   1_545  S
C125        C990   1.362       .  D
C125        H127   1.088       .  S
C126        C989   1.362       .  D
C126        H128   1.085       .  S
C129        C130   1.364       .  D
C129        H131   1.082       .  S
C130        H132   1.088       .  S
C133        C134   1.369       .  D
C133        H135   1.086       .  S
C134        H136   1.086       .  S
C137        C282   1.371       .  D
C137        H139   1.085       .  S
C138        C281   1.372   1_554  D
C138        H140   1.085       .  S
C141        C142   1.361       .  D
C141        H143   1.087       .  S
C142        H144   1.078       .  S
C145        C167   1.542       .  S
C145        C208   1.533       .  S
C145        C281   1.562       .  S
C145        C285   1.541       .  S
C146        C178   1.528       .  S
C146        C245   1.535       .  S
C146        C277   1.564       .  S
C146        C286   1.536       .  S
C147        C191   1.532       .  S
C147        C232   1.524       .  S
C147        C273   1.538       .  S
C147        C278   1.564       .  S
C148        C154   1.532       .  S
C148        C221   1.537       .  S
C148        C274   1.540       .  S
C148        C282   1.560       .  S
C149        C180   1.534       .  S
C149        C247   1.537   1_545  S
C149        C265   1.562       .  S
C149        C270   1.534   1_545  S
C150        C193   1.532   1_455  S
C150        C234   1.541       .  S
C150        C261   1.573       .  S
C150        C269   1.542   1_455  S
O151        C154   1.272       .  A
O151       Cd156   2.480       .  S
C152        C203   1.537       .  S
C152        O161   1.275       .  A
C152        O157   1.266       .  A
O153       Cd156   2.392       .  S
C154        O162   1.269       .  A
C155        O160   1.263   1_655  A
C155        O158   1.269   1_655  A
C155        C774   1.446       .  S
Cd156       O163   2.423       .  S
Cd156       O162   2.501       .  S
Cd156       O161   2.534       .  S
Cd156       O157   2.392       .  S
Cd156       O160   2.454       .  S
Cd156       O158   2.386       .  S
C159        C172   1.448       .  S
O164        C167   1.270       .  A
O164       Cd169   2.419       .  S
C165        C204   1.531       .  S
C165        O174   1.275       .  A
C165        O746   1.273       .  A
O166        C172   1.267       .  A
O166       Cd169   2.459       .  S
C167        O175   1.279       .  A
C168        O173   1.266       .  A
C168        O171   1.282       .  A
C168        C761   1.445       .  S
Cd169       O176   2.374       .  S
Cd169       O175   2.486       .  S
Cd169       O750   2.486       .  S
Cd169       O170   2.463       .  S
Cd169       O173   2.305       .  S
Cd169       O171   2.439       .  S
O170        C741   1.273       .  A
C172        O176   1.275       .  A
O174       Cd745   2.482       .  S
O177        C180   1.268       .  A
O177       Cd182   2.467       .  S
C178        O187   1.267       .  A
C178        O183   1.273       .  A
O179        C761   1.263       .  A
O179       Cd758   2.445   1_455  S
C180        O188   1.269       .  A
C181        O186   1.260       .  A
C181        O184   1.270       .  A
C181        C194   1.444       .  S
Cd182       O755   2.444       .  S
Cd182       O189   2.372       .  S
Cd182       O188   2.431       .  S
Cd182       O187   2.460       .  S
Cd182       O183   2.502       .  S
Cd182       O186   2.356       .  S
Cd182       O184   2.432       .  S
C185        O755   1.263       .  A
C185        O189   1.268       .  A
C185        C744   1.445       .  S
O190        C769   1.271       .  A
O190       Cd195   2.487       .  S
C191        O200   1.272       .  A
C191        O196   1.267       .  A
O192        C198   1.259       .  A
O192       Cd195   2.378       .  S
C193        O766   1.272       .  A
C193        O201   1.266       .  A
C194        O199   1.263       .  A
C194        O197   1.267       .  A
Cd195       O202   2.435       .  S
Cd195       O777   2.489       .  S
Cd195       O200   2.467       .  S
Cd195       O196   2.438       .  S
Cd195       O199   2.440       .  S
Cd195       O197   2.394       .  S
C198        O202   1.269       .  A
C198        C731   1.444       .  S
O201       Cd771   2.488       .  S
C203        C219   1.524       .  S
C203        C258   1.542       .  S
C203        C262   1.567       .  S
C204        C206   1.543       .  S
C204        C257   1.548       .  S
C204        C266   1.570       .  S
O205        C208   1.271       .  A
O205       Cd210   2.496   1_556  S
C206        O215   1.270       .  A
C206        O211   1.265       .  A
O207        C213   1.262       .  A
O207       Cd210   2.395       .  S
C208        O216   1.266       .  A
C209        O502   1.264   1_566  A
C209        O212   1.267   1_565  A
C209        C540   1.449       .  S
Cd210       O217   2.417       .  S
Cd210       O216   2.509   1_554  S
Cd210       O215   2.505   1_554  S
Cd210       O211   2.421   1_554  S
Cd210       O502   2.455       .  S
Cd210       O212   2.394   1_554  S
C213        O217   1.265       .  A
O214        C497   1.264   1_554  A
O214       Cd498   2.454       .  S
O218        C221   1.271       .  A
O218       Cd223   2.414       .  S
C219        O228   1.274       .  A
C219        O512   1.274       .  A
O220        C226   1.268       .  A
O220       Cd223   2.457       .  S
C221        O229   1.278       .  A
C222        O227   1.263       .  A
C222        O225   1.283       .  A
C222        C527   1.437   1_545  S
Cd223       O230   2.365       .  S
Cd223       O229   2.476       .  S
Cd223       O516   2.463       .  S
Cd223       O224   2.462       .  S
Cd223       O227   2.264       .  S
Cd223       O225   2.430       .  S
O224        C507   1.274       .  A
C226        O230   1.274       .  A
O228       Cd511   2.462       .  S
O231        C234   1.267       .  A
O231       Cd236   2.464       .  S
C232        O241   1.266       .  A
C232        O237   1.273       .  A
O233        C527   1.265       .  A
O233       Cd524   2.434       .  S
C234        O242   1.275       .  A
C235        O240   1.259       .  A
C235        O238   1.272       .  A
C235        C248   1.452       .  S
Cd236       O521   2.435       .  S
Cd236       O243   2.337       .  S
Cd236       O242   2.478       .  S
Cd236       O241   2.450       .  S
Cd236       O237   2.497       .  S
Cd236       O240   2.368       .  S
Cd236       O238   2.448       .  S
C239        O521   1.265       .  A
C239        O243   1.270       .  A
C239        C510   1.437       .  S
O244        C535   1.270       .  A
O244       Cd249   2.530       .  S
C245        O254   1.273       .  A
C245        O250   1.268       .  A
O246        C252   1.259       .  A
O246       Cd249   2.382       .  S
C247        O532   1.270       .  A
C247        O255   1.269       .  A
C248        O253   1.262       .  A
C248        O251   1.270       .  A
Cd249       O256   2.470       .  S
Cd249       O543   2.489       .  S
Cd249       O254   2.465       .  S
Cd249       O250   2.467       .  S
Cd249       O253   2.453       .  S
Cd249       O251   2.411       .  S
C252        O256   1.270       .  A
C252        C497   1.449       .  S
O255       Cd537   2.487       .  S
C257        C978   1.366   1_556  D
C257        H835   1.083   1_545  S
C258        C977   1.365       .  D
C258        H836   1.083       .  S
H259        C833   1.083   1_565  S
H260        C834   1.082       .  S
C261        C262   1.375       .  D
C261        H263   1.085       .  S
C262        H264   1.083   1_455  S
C265        C266   1.366       .  D
C265        H267   1.088       .  S
C266        H268   1.085   1_545  S
C269       C1134   1.362       .  D
C269        H271   1.088       .  S
C270       C1133   1.361       .  D
C270        H272   1.085       .  S
C273        C274   1.364       .  D
C273        H275   1.082       .  S
C274        H276   1.088       .  S
C277        C278   1.368       .  D
C277        H279   1.086       .  S
C278        H280   1.086       .  S
C281        H283   1.085       .  S
C282        H284   1.085       .  S
C285        C286   1.362       .  D
C285        H287   1.088       .  S
C286        H288   1.080       .  S
C289        C311   1.544       .  S
C289        C352   1.531       .  S
C289        C425   1.559       .  S
C289        C429   1.540       .  S
C290        C322   1.529       .  S
C290        C389   1.535       .  S
C290        C421   1.563       .  S
C290        C430   1.535       .  S
C291        C335   1.530       .  S
C291        C376   1.524       .  S
C291        C417   1.539       .  S
C291        C422   1.563       .  S
C292        C298   1.532       .  S
C292        C365   1.535       .  S
C292        C418   1.542       .  S
C292        C426   1.562       .  S
C293        C324   1.534       .  S
C293        C391   1.536       .  S
C293        C409   1.565       .  S
C293        C414   1.536       .  S
C294        C337   1.533   1_455  S
C294        C378   1.541       .  S
C294        C405   1.570       .  S
C294        C413   1.542   1_455  S
O295        C298   1.271       .  A
O295       Cd300   2.473   1_554  S
C296        C347   1.536   1_565  S
C296        O305   1.274   1_554  A
C296        O301   1.266       .  A
O297        C447   1.261       .  A
O297       Cd300   2.388       .  S
C298        O306   1.270       .  A
C299        O304   1.263   1_654  A
C299        O302   1.270   1_655  A
C299        C918   1.445       .  S
Cd300       O307   2.418       .  S
Cd300       O306   2.505   1_556  S
Cd300       O305   2.525       .  S
Cd300       O301   2.399   1_556  S
Cd300       O304   2.445       .  S
Cd300       O302   2.389   1_556  S
C303        O441   1.261       .  A
C303        O451   1.267       .  A
C303        C316   1.449       .  S
O307        C447   1.266       .  A
O308        C311   1.271       .  A
O308       Cd313   2.423       .  S
C309        C348   1.530       .  S
C309        O318   1.275       .  A
C309        O890   1.274       .  A
O310        C316   1.267       .  A
O310       Cd313   2.457       .  S
C311        O319   1.279       .  A
C312        O317   1.264       .  A
C312        O315   1.283       .  A
C312        C905   1.445       .  S
Cd313       O320   2.374       .  S
Cd313       O319   2.495       .  S
Cd313       O894   2.474       .  S
Cd313       O314   2.466       .  S
Cd313       O317   2.297       .  S
Cd313       O315   2.450       .  S
O314        C885   1.274       .  A
C316        O320   1.275       .  A
O318       Cd889   2.474       .  S
O321        C324   1.269       .  A
O321       Cd326   2.462       .  S
C322        O331   1.267       .  A
C322        O327   1.273       .  A
O323        C905   1.263       .  A
O323       Cd902   2.449   1_455  S
C324        O332   1.269       .  A
C325        O330   1.260       .  A
C325        O328   1.271       .  A
C325        C338   1.443       .  S
Cd326       O899   2.449       .  S
Cd326       O333   2.365       .  S
Cd326       O332   2.433       .  S
Cd326       O331   2.465       .  S
Cd326       O327   2.503       .  S
Cd326       O330   2.348       .  S
Cd326       O328   2.437       .  S
C329        O899   1.263       .  A
C329        O333   1.268       .  A
C329        C888   1.445       .  S
O334        C913   1.272       .  A
O334       Cd339   2.486       .  S
C335        O344   1.272       .  A
C335        O340   1.266       .  A
O336        C342   1.260       .  A
O336       Cd339   2.379       .  S
C337        O910   1.272       .  A
C337        O345   1.266       .  A
C338        O343   1.263       .  A
C338        O341   1.267       .  A
Cd339       O346   2.428       .  S
Cd339       O921   2.489       .  S
Cd339       O344   2.477       .  S
Cd339       O340   2.421       .  S
Cd339       O343   2.440       .  S
Cd339       O341   2.386       .  S
C342        O346   1.269       .  A
C342        C875   1.444       .  S
O345       Cd915   2.492       .  S
C347        C363   1.523       .  S
C347        C402   1.543       .  S
C347        C406   1.565   1_545  S
C348        C350   1.544       .  S
C348        C401   1.547       .  S
C348        C410   1.572       .  S
O349        C352   1.272       .  A
O349       Cd354   2.495       .  S
C350        O359   1.272       .  A
C350        O355   1.264       .  A
O351        C357   1.262       .  A
O351       Cd354   2.402       .  S
C352        O360   1.266       .  A
C353        O356   1.267       .  A
Cd354       O361   2.422       .  S
Cd354       O360   2.497       .  S
Cd354       O359   2.507       .  S
Cd354       O355   2.432       .  S
Cd354       O356   2.387       .  S
C357        O361   1.265       .  A
C357        C514   1.447       .  S
O362        C365   1.271       .  A
O362       Cd367   2.415       .  S
C363        O372   1.275       .  A
O364        C370   1.267       .  A
O364       Cd367   2.454       .  S
C365        O373   1.277       .  A
C366        O371   1.262       .  A
C366        O369   1.282       .  A
Cd367       O374   2.371       .  S
Cd367       O373   2.467       .  S
Cd367       O368   2.453       .  S
Cd367       O371   2.273       .  S
Cd367       O369   2.432       .  S
C370        O374   1.274       .  A
C370        C501   1.446       .  S
O375        C378   1.268       .  A
O375       Cd380   2.463       .  S
C376        O385   1.266       .  A
C376        O381   1.273       .  A
C378        O386   1.275       .  A
C379        O384   1.258       .  A
C379        O382   1.272       .  A
C379        C392   1.450       .  S
Cd380       O387   2.337       .  S
Cd380       O386   2.475       .  S
Cd380       O385   2.450       .  S
Cd380       O381   2.494       .  S
Cd380       O384   2.371       .  S
Cd380       O382   2.437       .  S
C383        O387   1.270       .  A
O388       Cd393   2.524       .  S
C389        O398   1.272       .  A
C389        O394   1.269       .  A
O390        C396   1.259       .  A
O390       Cd393   2.377       .  S
C391        O399   1.269       .  A
C392        O397   1.262       .  A
C392        O395   1.271       .  A
Cd393       O400   2.471       .  S
Cd393       O398   2.454       .  S
Cd393       O394   2.480       .  S
Cd393       O397   2.439       .  S
Cd393       O395   2.416       .  S
C396        O400   1.270       .  A
C401        C834   1.366       .  D
C401        H979   1.083       .  S
C402        C833   1.366   1_554  D
C402        H980   1.083       .  S
H403        C977   1.083       .  S
H404        C978   1.083       .  S
C405        C406   1.373       .  D
C405        H407   1.086       .  S
C406        H408   1.083   1_455  S
C409        C410   1.366       .  D
C409        H411   1.088       .  S
C410        H412   1.085       .  S
C413        C702   1.362       .  D
C413        H415   1.088       .  S
C414        C701   1.363       .  D
C414        H416   1.085       .  S
C417        C418   1.363       .  D
C417        H419   1.082       .  S
C418        H420   1.088       .  S
C421        C422   1.368       .  D
C421        H423   1.086       .  S
C422        H424   1.085       .  S
C425        C570   1.371       .  D
C425        H427   1.085       .  S
C426        C569   1.372   1_554  D
C426        H428   1.085       .  S
C429        C430   1.360       .  D
C429        H431   1.087       .  S
C430        H432   1.079       .  S
C433        C455   1.542       .  S
C433        C496   1.533       .  S
C433        C569   1.562       .  S
C433        C573   1.541       .  S
C434        C466   1.529       .  S
C434        C533   1.535       .  S
C434        C565   1.564       .  S
C434        C574   1.536       .  S
C435        C479   1.531       .  S
C435        C520   1.524       .  S
C435        C561   1.539       .  S
C435        C566   1.564       .  S
C436        C442   1.532       .  S
C436        C509   1.537       .  S
C436        C562   1.540       .  S
C436        C570   1.560       .  S
C437        C468   1.533       .  S
C437        C535   1.537       .  S
C437        C553   1.562       .  S
C437        C558   1.535       .  S
C438        C481   1.532   1_455  S
C438        C522   1.541       .  S
C438        C549   1.573       .  S
C438        C557   1.541   1_455  S
O439        C442   1.272       .  A
O439       Cd444   2.480       .  S
C440        C491   1.537   1_565  S
C440        O449   1.275       .  A
C440        O445   1.266       .  A
O441       Cd444   2.393       .  S
C442        O450   1.269       .  A
C443        O448   1.263   1_655  A
C443        O446   1.269   1_655  A
C443       C1062   1.446       .  S
Cd444       O451   2.423       .  S
Cd444       O450   2.500       .  S
Cd444       O449   2.534       .  S
Cd444       O445   2.394       .  S
Cd444       O448   2.451       .  S
Cd444       O446   2.388       .  S
C447        C460   1.448       .  S
O452        C455   1.270       .  A
O452       Cd457   2.420       .  S
C453        C492   1.532       .  S
C453        O462   1.275       .  A
C453       O1034   1.273       .  A
O454        C460   1.267       .  A
O454       Cd457   2.458       .  S
C455        O463   1.279       .  A
C456        O461   1.266       .  A
C456        O459   1.282       .  A
C456       C1049   1.446       .  S
Cd457       O464   2.373       .  S
Cd457       O463   2.486       .  S
Cd457      O1038   2.484       .  S
Cd457       O458   2.462       .  S
Cd457       O461   2.308       .  S
Cd457       O459   2.438       .  S
O458       C1029   1.273       .  A
C460        O464   1.275       .  A
O462      Cd1033   2.483       .  S
O465        C468   1.269       .  A
O465       Cd470   2.465       .  S
C466        O475   1.267       .  A
C466        O471   1.273       .  A
O467       C1049   1.263       .  A
O467      Cd1046   2.445   1_455  S
C468        O476   1.269       .  A
C469        O474   1.260       .  A
C469        O472   1.270       .  A
C469        C482   1.443       .  S
Cd470      O1043   2.443       .  S
Cd470       O477   2.371       .  S
Cd470       O476   2.435       .  S
Cd470       O475   2.461       .  S
Cd470       O471   2.503       .  S
Cd470       O474   2.354       .  S
Cd470       O472   2.431       .  S
C473       O1043   1.263       .  A
C473        O477   1.268       .  A
C473       C1032   1.445       .  S
O478       C1057   1.272       .  A
O478       Cd483   2.486       .  S
C479        O488   1.273       .  A
C479        O484   1.267       .  A
O480        C486   1.260       .  A
O480       Cd483   2.379       .  S
C481       O1054   1.272       .  A
C481        O489   1.266       .  A
C482        O487   1.263       .  A
C482        O485   1.267       .  A
Cd483       O490   2.436       .  S
Cd483      O1065   2.488       .  S
Cd483       O488   2.472       .  S
Cd483       O484   2.429       .  S
Cd483       O487   2.439       .  S
Cd483       O485   2.391       .  S
C486        O490   1.269       .  A
C486       C1019   1.445       .  S
O489      Cd1059   2.489       .  S
C491        C507   1.524       .  S
C491        C546   1.542       .  S
C491        C550   1.567   1_545  S
C492        C494   1.543       .  S
C492        C545   1.548       .  S
C492        C554   1.571       .  S
O493        C496   1.271       .  A
O493       Cd498   2.497   1_556  S
C494        O503   1.271       .  A
C494        O499   1.265       .  A
O495        C501   1.262       .  A
O495       Cd498   2.395       .  S
C496        O504   1.266       .  A
C497        O500   1.267       .  A
Cd498       O505   2.418       .  S
Cd498       O504   2.509   1_554  S
Cd498       O503   2.505   1_554  S
Cd498       O499   2.426   1_554  S
Cd498       O500   2.392   1_554  S
C501        O505   1.265       .  A
O506        C509   1.271       .  A
O506       Cd511   2.414       .  S
C507        O516   1.273       .  A
O508        C514   1.268       .  A
O508       Cd511   2.456       .  S
C509        O517   1.278       .  A
C510        O515   1.263       .  A
C510        O513   1.283       .  A
Cd511       O518   2.365       .  S
Cd511       O517   2.476       .  S
Cd511       O512   2.460       .  S
Cd511       O515   2.266       .  S
Cd511       O513   2.429       .  S
C514        O518   1.274       .  A
O519        C522   1.267       .  A
O519       Cd524   2.462       .  S
C520        O529   1.266       .  A
C520        O525   1.272       .  A
C522        O530   1.275       .  A
C523        O528   1.258       .  A
C523        O526   1.273       .  A
C523        C536   1.451       .  S
Cd524       O531   2.334       .  S
Cd524       O530   2.476       .  S
Cd524       O529   2.449       .  S
Cd524       O525   2.496       .  S
Cd524       O528   2.368       .  S
Cd524       O526   2.447       .  S
C527        O531   1.270       .  A
O532       Cd537   2.527       .  S
C533        O542   1.272       .  A
C533        O538   1.268       .  A
O534        C540   1.259       .  A
O534       Cd537   2.382       .  S
C535        O543   1.269       .  A
C536        O541   1.262       .  A
C536        O539   1.270       .  A
Cd537       O544   2.469       .  S
Cd537       O542   2.461       .  S
Cd537       O538   2.473       .  S
Cd537       O541   2.451       .  S
Cd537       O539   2.413       .  S
C540        O544   1.270       .  A
C545        C690   1.367   1_556  D
C545       H1123   1.083       .  S
C546        C689   1.366       .  D
C546       H1124   1.083       .  S
H547       C1121   1.083       .  S
H548       C1122   1.083       .  S
C549        C550   1.375       .  D
C549        H551   1.086       .  S
C550        H552   1.083   1_455  S
C553        C554   1.366       .  D
C553        H555   1.088       .  S
C554        H556   1.085       .  S
C557        C846   1.362       .  D
C557        H559   1.088       .  S
C558        C845   1.362       .  D
C558        H560   1.085       .  S
C561        C562   1.364       .  D
C561        H563   1.082       .  S
C562        H564   1.088       .  S
C565        C566   1.368       .  D
C565        H567   1.086       .  S
C566        H568   1.086       .  S
C569        H571   1.085       .  S
C570        H572   1.085       .  S
C573        C574   1.361       .  D
C573        H575   1.088       .  S
C574        H576   1.080       .  S
C577        C599   1.544       .  S
C577        C640   1.532       .  S
C577        C713   1.559       .  S
C577        C717   1.540       .  S
C578        C610   1.529       .  S
C578        C677   1.535       .  S
C578        C709   1.563       .  S
C578        C718   1.535       .  S
C579        C623   1.530       .  S
C579        C664   1.525       .  S
C579        C705   1.539       .  S
C579        C710   1.563       .  S
C580        C586   1.532       .  S
C580        C653   1.535       .  S
C580        C706   1.542       .  S
C580        C714   1.561       .  S
C581        C612   1.534       .  S
C581        C679   1.536   1_545  S
C581        C697   1.565       .  S
C581        C702   1.536   1_545  S
C582        C625   1.533       .  S
C582        C666   1.541       .  S
C582        C693   1.570       .  S
C582        C701   1.542       .  S
O583        C586   1.271       .  A
O583       Cd588   2.474   1_554  S
C584        C635   1.535       .  S
C584        O593   1.274   1_554  A
C584        O589   1.266       .  A
O585        C735   1.260       .  A
O585       Cd588   2.387       .  S
C586        O594   1.269       .  A
C587        O592   1.263   1_554  A
C587        O590   1.270       .  A
Cd588       O595   2.418       .  S
Cd588       O594   2.505   1_556  S
Cd588       O593   2.525       .  S
Cd588       O589   2.397   1_556  S
Cd588       O592   2.445       .  S
Cd588       O590   2.387   1_556  S
C591        O729   1.261       .  A
C591        O739   1.267       .  A
C591        C604   1.450       .  S
O595        C735   1.267       .  A
O596        C599   1.271       .  A
O596       Cd601   2.422       .  S
C597        C636   1.531       .  S
C597        O606   1.275       .  A
O598        C604   1.267       .  A
O598       Cd601   2.458       .  S
C599        O607   1.279       .  A
C600        O605   1.265       .  A
C600        O603   1.283       .  A
Cd601       O608   2.375       .  S
Cd601       O607   2.495       .  S
Cd601       O602   2.465       .  S
Cd601       O605   2.300       .  S
Cd601       O603   2.446       .  S
C604        O608   1.275       .  A
O609        C612   1.269       .  A
O609       Cd614   2.463       .  S
C610        O619   1.267       .  A
C610        O615   1.273       .  A
C612        O620   1.270       .  A
C613        O618   1.260       .  A
C613        O616   1.271       .  A
C613        C626   1.444       .  S
Cd614       O621   2.366       .  S
Cd614       O620   2.435       .  S
Cd614       O619   2.464       .  S
Cd614       O615   2.504       .  S
Cd614       O618   2.348       .  S
Cd614       O616   2.438       .  S
C617        O621   1.268   1_455  A
O622       Cd627   2.486       .  S
C623        O632   1.272       .  A
C623        O628   1.266       .  A
O624        C630   1.260       .  A
O624       Cd627   2.381       .  S
C625        O633   1.266       .  A
C626        O631   1.263       .  A
C626        O629   1.267       .  A
Cd627       O634   2.430       .  S
Cd627       O632   2.480       .  S
Cd627       O628   2.419       .  S
Cd627       O631   2.442       .  S
Cd627       O629   2.385       .  S
C630        O634   1.269       .  A
C635        C651   1.523       .  S
C635        C690   1.543       .  S
C635        C694   1.565       .  S
C636        C638   1.544   1_455  S
C636        C689   1.546       .  S
C636        C698   1.572   1_455  S
O637        C640   1.272       .  A
O637       Cd642   2.496       .  S
C638        O647   1.272       .  A
C638        O643   1.264       .  A
O639        C645   1.262       .  A
O639       Cd642   2.402       .  S
C640        O648   1.266       .  A
C641        O934   1.264   1_565  A
C641        O644   1.267   1_565  A
C641        C972   1.448       .  S
Cd642       O649   2.420       .  S
Cd642       O648   2.498       .  S
Cd642       O647   2.508       .  S
Cd642       O643   2.429       .  S
Cd642       O934   2.449       .  S
Cd642       O644   2.387       .  S
C645        O649   1.265       .  A
C645        C802   1.447       .  S
O646        C929   1.264       .  A
O646       Cd930   2.448       .  S
O650        C653   1.271       .  A
O650       Cd655   2.415       .  S
C651        O660   1.274       .  A
C651        O944   1.273       .  A
O652        C658   1.267       .  A
O652       Cd655   2.455       .  S
C653        O661   1.277       .  A
C654        O659   1.262       .  A
C654        O657   1.282       .  A
C654        C959   1.437   1_545  S
Cd655       O662   2.369       .  S
Cd655       O661   2.467       .  S
Cd655       O948   2.466       .  S
Cd655       O656   2.451       .  S
Cd655       O659   2.274       .  S
Cd655       O657   2.431       .  S
O656        C939   1.273       .  A
C658        O662   1.274       .  A
C658        C789   1.445       .  S
O660       Cd943   2.468       .  S
O663        C666   1.268       .  A
O663       Cd668   2.461       .  S
C664        O673   1.266       .  A
C664        O669   1.272       .  A
O665        C959   1.265       .  A
O665       Cd956   2.438       .  S
C666        O674   1.275       .  A
C667        O672   1.258       .  A
C667        O670   1.272       .  A
C667        C680   1.449       .  S
Cd668       O953   2.438       .  S
Cd668       O675   2.336       .  S
Cd668       O674   2.474       .  S
Cd668       O673   2.451       .  S
Cd668       O669   2.495       .  S
Cd668       O672   2.369       .  S
Cd668       O670   2.438       .  S
C671        O953   1.265       .  A
C671        O675   1.270       .  A
C671        C942   1.437       .  S
O676        C967   1.270       .  A
O676       Cd681   2.524       .  S
C677        O686   1.272       .  A
C677        O682   1.269       .  A
O678        C684   1.259       .  A
O678       Cd681   2.379       .  S
C679        O964   1.270       .  A
C679        O687   1.269       .  A
C680        O685   1.262       .  A
C680        O683   1.271       .  A
Cd681       O688   2.470       .  S
Cd681       O975   2.479       .  S
Cd681       O686   2.455       .  S
Cd681       O682   2.478       .  S
Cd681       O685   2.439       .  S
Cd681       O683   2.414       .  S
C684        O688   1.270       .  A
C684        C929   1.449       .  S
O687       Cd969   2.479       .  S
C693        C694   1.374       .  D
C693        H695   1.086       .  S
C694        H696   1.083       .  S
C697        C698   1.366       .  D
C697        H699   1.088       .  S
C698        H700   1.085   1_545  S
C701        H703   1.088       .  S
C702        H704   1.085   1_655  S
C705        C706   1.363       .  D
C705        H707   1.082       .  S
C706        H708   1.088       .  S
C709        C710   1.368       .  D
C709        H711   1.086       .  S
C710        H712   1.085       .  S
C713        C858   1.371       .  D
C713        H715   1.085       .  S
C714        C857   1.371   1_554  D
C714        H716   1.085       .  S
C717        C718   1.361       .  D
C717        H719   1.087       .  S
C718        H720   1.079       .  S
C721        C743   1.542       .  S
C721        C784   1.532       .  S
C721        C857   1.561       .  S
C721        C861   1.540       .  S
C722        C754   1.528       .  S
C722        C821   1.535       .  S
C722        C853   1.563       .  S
C722        C862   1.535       .  S
C723        C767   1.531       .  S
C723        C808   1.523       .  S
C723        C849   1.538       .  S
C723        C854   1.563       .  S
C724        C730   1.533       .  S
C724        C797   1.537       .  S
C724        C850   1.540       .  S
C724        C858   1.560       .  S
C725        C756   1.534       .  S
C725        C823   1.537   1_545  S
C725        C841   1.562       .  S
C725        C846   1.534   1_545  S
C726        C769   1.532       .  S
C726        C810   1.542       .  S
C726        C837   1.573       .  S
C726        C845   1.542       .  S
O727        C730   1.272       .  A
O727       Cd732   2.484       .  S
C728        C779   1.537       .  S
C728        O737   1.276       .  A
C728        O733   1.265       .  A
O729       Cd732   2.396       .  S
C730        O738   1.269       .  A
C731        O736   1.264       .  A
C731        O734   1.269       .  A
Cd732       O739   2.426       .  S
Cd732       O738   2.500       .  S
Cd732       O737   2.536       .  S
Cd732       O733   2.400       .  S
Cd732       O736   2.450       .  S
Cd732       O734   2.382       .  S
C735        C748   1.448       .  S
O740        C743   1.270       .  A
O740       Cd745   2.419       .  S
C741        C780   1.532       .  S
C741        O750   1.275       .  A
O742        C748   1.267       .  A
O742       Cd745   2.458       .  S
C743        O751   1.279       .  A
C744        O749   1.266       .  A
C744        O747   1.282       .  A
Cd745       O752   2.372       .  S
Cd745       O751   2.488       .  S
Cd745       O746   2.462       .  S
Cd745       O749   2.307       .  S
Cd745       O747   2.438       .  S
C748        O752   1.275       .  A
O753        C756   1.268       .  A
O753       Cd758   2.467       .  S
C754        O763   1.267       .  A
C754        O759   1.273       .  A
C756        O764   1.269       .  A
C757        O762   1.260       .  A
C757        O760   1.270       .  A
C757        C770   1.444       .  S
Cd758       O765   2.370       .  S
Cd758       O764   2.433       .  S
Cd758       O763   2.459       .  S
Cd758       O759   2.499       .  S
Cd758       O762   2.356       .  S
Cd758       O760   2.435       .  S
C761        O765   1.268   1_455  A
O766       Cd771   2.488       .  S
C767        O776   1.273       .  A
C767        O772   1.266       .  A
O768        C774   1.260       .  A
O768       Cd771   2.380       .  S
C769        O777   1.267       .  A
C770        O775   1.263       .  A
C770        O773   1.267       .  A
Cd771       O778   2.437       .  S
Cd771       O776   2.478       .  S
Cd771       O772   2.423       .  S
Cd771       O775   2.441       .  S
Cd771       O773   2.392       .  S
C774        O778   1.269       .  A
C779        C795   1.523       .  S
C779        C834   1.541       .  S
C779        C838   1.568       .  S
C780        C782   1.543   1_455  S
C780        C833   1.548       .  S
C780        C842   1.571   1_455  S
O781        C784   1.271       .  A
O781       Cd786   2.494   1_556  S
C782        O791   1.270       .  A
C782        O787   1.264       .  A
O783        C789   1.262       .  A
O783       Cd786   2.396       .  S
C784        O792   1.266       .  A
C785       O1078   1.264   1_566  A
C785        O788   1.267   1_565  A
C785       C1116   1.449       .  S
Cd786       O793   2.417       .  S
Cd786       O792   2.509   1_554  S
Cd786       O791   2.505   1_554  S
Cd786       O787   2.424   1_554  S
Cd786      O1078   2.457       .  S
Cd786       O788   2.392   1_554  S
C789        O793   1.265       .  A
O790       C1073   1.264   1_554  A
O790      Cd1074   2.455       .  S
O794        C797   1.271       .  A
O794       Cd799   2.414       .  S
C795        O804   1.274       .  A
C795       O1088   1.274       .  A
O796        C802   1.268       .  A
O796       Cd799   2.458       .  S
C797        O805   1.278       .  A
C798        O803   1.263       .  A
C798        O801   1.283       .  A
C798       C1103   1.436   1_545  S
Cd799       O806   2.364       .  S
Cd799       O805   2.476       .  S
Cd799      O1092   2.460       .  S
Cd799       O800   2.459       .  S
Cd799       O803   2.265       .  S
Cd799       O801   2.426       .  S
O800       C1083   1.274       .  A
C802        O806   1.274       .  A
O804      Cd1087   2.460       .  S
O807        C810   1.267       .  A
O807       Cd812   2.459       .  S
C808        O817   1.265       .  A
C808        O813   1.273       .  A
O809       C1103   1.265       .  A
O809      Cd1100   2.432       .  S
C810        O818   1.275       .  A
C811        O816   1.259       .  A
C811        O814   1.272       .  A
C811        C824   1.451       .  S
Cd812      O1097   2.435       .  S
Cd812       O819   2.343       .  S
Cd812       O818   2.473       .  S
Cd812       O817   2.445       .  S
Cd812       O813   2.494       .  S
Cd812       O816   2.365       .  S
Cd812       O814   2.448       .  S
C815       O1097   1.265       .  A
C815        O819   1.270       .  A
C815       C1086   1.439       .  S
O820       C1111   1.270       .  A
O820       Cd825   2.528       .  S
C821        O830   1.272       .  A
C821        O826   1.268       .  A
O822        C828   1.259       .  A
O822       Cd825   2.382       .  S
C823       O1108   1.270       .  A
C823        O831   1.269       .  A
C824        O829   1.262       .  A
C824        O827   1.270       .  A
Cd825       O832   2.470       .  S
Cd825      O1119   2.487       .  S
Cd825       O830   2.464       .  S
Cd825       O826   2.472       .  S
Cd825       O829   2.450       .  S
Cd825       O827   2.409       .  S
C828        O832   1.270       .  A
C828       C1073   1.449       .  S
O831      Cd1113   2.487       .  S
C837        C838   1.374       .  D
C837        H839   1.086       .  S
C838        H840   1.083       .  S
C841        C842   1.366       .  D
C841        H843   1.088       .  S
C842        H844   1.085   1_545  S
C845        H847   1.088       .  S
C846        H848   1.085   1_655  S
C849        C850   1.365       .  D
C849        H851   1.082       .  S
C850        H852   1.088       .  S
C853        C854   1.368       .  D
C853        H855   1.086       .  S
C854        H856   1.086       .  S
C857        H859   1.085       .  S
C858        H860   1.085       .  S
C861        C862   1.361       .  D
C861        H863   1.088       .  S
C862        H864   1.080       .  S
C865        C887   1.544       .  S
C865        C928   1.532       .  S
C865       C1001   1.559       .  S
C865       C1005   1.540       .  S
C866        C898   1.528       .  S
C866        C965   1.535       .  S
C866        C997   1.563       .  S
C866       C1006   1.535       .  S
C867        C911   1.531       .  S
C867        C952   1.525       .  S
C867        C993   1.539       .  S
C867        C998   1.563       .  S
C868        C874   1.531       .  S
C868        C941   1.535       .  S
C868        C994   1.542       .  S
C868       C1002   1.562       .  S
C869        C900   1.534       .  S
C869        C967   1.536       .  S
C869        C985   1.565       .  S
C869        C990   1.535       .  S
C870        C913   1.532       .  S
C870        C954   1.540       .  S
C870        C981   1.570       .  S
C870        C989   1.542       .  S
O871        C874   1.271       .  A
O871       Cd876   2.473   1_554  S
C872        C923   1.535   1_565  S
C872        O881   1.274   1_554  A
C872        O877   1.266       .  A
O873       C1023   1.261       .  A
O873       Cd876   2.388       .  S
C874        O882   1.269       .  A
C875        O880   1.263   1_554  A
C875        O878   1.270       .  A
Cd876       O883   2.418       .  S
Cd876       O882   2.503   1_556  S
Cd876       O881   2.525       .  S
Cd876       O877   2.399   1_556  S
Cd876       O880   2.443       .  S
Cd876       O878   2.389   1_556  S
C879       O1017   1.261       .  A
C879       O1027   1.267       .  A
C879        C892   1.450       .  S
O883       C1023   1.267       .  A
O884        C887   1.271       .  A
O884       Cd889   2.425       .  S
C885        C924   1.531       .  S
C885        O894   1.275       .  A
O886        C892   1.267       .  A
O886       Cd889   2.457       .  S
C887        O895   1.279       .  A
C888        O893   1.264       .  A
C888        O891   1.283       .  A
Cd889       O896   2.375       .  S
Cd889       O895   2.495       .  S
Cd889       O890   2.465       .  S
Cd889       O893   2.299       .  S
Cd889       O891   2.451       .  S
C892        O896   1.275       .  A
O897        C900   1.269       .  A
O897       Cd902   2.462       .  S
C898        O907   1.267       .  A
C898        O903   1.273       .  A
C900        O908   1.270       .  A
C901        O906   1.260       .  A
C901        O904   1.271       .  A
C901        C914   1.443       .  S
Cd902       O909   2.363       .  S
Cd902       O908   2.435       .  S
Cd902       O907   2.464       .  S
Cd902       O903   2.502       .  S
Cd902       O906   2.347       .  S
Cd902       O904   2.438       .  S
C905        O909   1.268   1_455  A
O910       Cd915   2.485       .  S
C911        O920   1.272       .  A
C911        O916   1.266       .  A
O912        C918   1.260       .  A
O912       Cd915   2.382       .  S
C913        O921   1.266       .  A
C914        O919   1.263       .  A
C914        O917   1.267       .  A
Cd915       O922   2.431       .  S
Cd915       O920   2.477       .  S
Cd915       O916   2.423       .  S
Cd915       O919   2.441       .  S
Cd915       O917   2.386       .  S
C918        O922   1.269       .  A
C923        C939   1.523       .  S
C923        C978   1.543       .  S
C923        C982   1.565   1_545  S
C924        C926   1.544   1_455  S
C924        C977   1.546       .  S
C924        C986   1.571   1_455  S
O925        C928   1.272       .  A
O925       Cd930   2.496       .  S
C926        O935   1.272       .  A
C926        O931   1.264       .  A
O927        C933   1.262       .  A
O927       Cd930   2.402       .  S
C928        O936   1.266       .  A
C929        O932   1.267       .  A
Cd930       O937   2.420       .  S
Cd930       O936   2.499       .  S
Cd930       O935   2.507       .  S
Cd930       O931   2.430       .  S
Cd930       O932   2.388       .  S
C933        O937   1.265       .  A
C933       C1090   1.447       .  S
O938        C941   1.271       .  A
O938       Cd943   2.415       .  S
C939        O948   1.275       .  A
O940        C946   1.267       .  A
O940       Cd943   2.454       .  S
C941        O949   1.277       .  A
C942        O947   1.262       .  A
C942        O945   1.282       .  A
Cd943       O950   2.370       .  S
Cd943       O949   2.467       .  S
Cd943       O944   2.452       .  S
Cd943       O947   2.273       .  S
Cd943       O945   2.433       .  S
C946        O950   1.274       .  A
C946       C1077   1.446       .  S
O951        C954   1.267       .  A
O951       Cd956   2.459       .  S
C952        O961   1.266       .  A
C952        O957   1.273       .  A
C954        O962   1.274       .  A
C955        O960   1.258       .  A
C955        O958   1.272       .  A
C955        C968   1.449       .  S
Cd956       O963   2.337       .  S
Cd956       O962   2.472       .  S
Cd956       O961   2.451       .  S
Cd956       O957   2.495       .  S
Cd956       O960   2.369       .  S
Cd956       O958   2.435       .  S
C959        O963   1.270       .  A
O964       Cd969   2.523       .  S
C965        O974   1.272       .  A
C965        O970   1.269       .  A
O966        C972   1.259       .  A
O966       Cd969   2.378       .  S
C967        O975   1.269       .  A
C968        O973   1.262       .  A
C968        O971   1.271       .  A
Cd969       O976   2.469       .  S
Cd969       O974   2.456       .  S
Cd969       O970   2.478       .  S
Cd969       O973   2.439       .  S
Cd969       O971   2.415       .  S
C972        O976   1.270       .  A
C981        C982   1.373       .  D
C981        H983   1.086       .  S
C982        H984   1.083       .  S
C985        C986   1.366       .  D
C985        H987   1.088       .  S
C986        H988   1.085       .  S
C989        H991   1.088       .  S
C990        H992   1.085   1_655  S
C993        C994   1.363       .  D
C993        H995   1.081       .  S
C994        H996   1.088       .  S
C997        C998   1.368       .  D
C997        H999   1.086       .  S
C998       H1000   1.085       .  S
C1001      C1146   1.371       .  D
C1001      H1003   1.085       .  S
C1002      C1145   1.372   1_554  D
C1002      H1004   1.085       .  S
C1005      C1006   1.361       .  D
C1005      H1007   1.087       .  S
C1006      H1008   1.078       .  S
C1009      C1031   1.542       .  S
C1009      C1072   1.533       .  S
C1009      C1145   1.562       .  S
C1009      C1149   1.541       .  S
C1010      C1042   1.528       .  S
C1010      C1109   1.535       .  S
C1010      C1141   1.563       .  S
C1010      C1150   1.535       .  S
C1011      C1055   1.531       .  S
C1011      C1096   1.524       .  S
C1011      C1137   1.538       .  S
C1011      C1142   1.564       .  S
C1012      C1018   1.533       .  S
C1012      C1085   1.537       .  S
C1012      C1138   1.540       .  S
C1012      C1146   1.560       .  S
C1013      C1044   1.534       .  S
C1013      C1111   1.537       .  S
C1013      C1129   1.562       .  S
C1013      C1134   1.535       .  S
C1014      C1057   1.532       .  S
C1014      C1098   1.541       .  S
C1014      C1125   1.573       .  S
C1014      C1133   1.541       .  S
O1015      C1018   1.272       .  A
O1015     Cd1020   2.482       .  S
C1016      C1067   1.538   1_565  S
C1016      O1025   1.275       .  A
C1016      O1021   1.266       .  A
O1017     Cd1020   2.394       .  S
C1018      O1026   1.269       .  A
C1019      O1024   1.263       .  A
C1019      O1022   1.269       .  A
Cd1020     O1027   2.424       .  S
Cd1020     O1026   2.500       .  S
Cd1020     O1025   2.536       .  S
Cd1020     O1021   2.394       .  S
Cd1020     O1024   2.453       .  S
Cd1020     O1022   2.386       .  S
C1023      C1036   1.448       .  S
O1028      C1031   1.270       .  A
O1028     Cd1033   2.420       .  S
C1029      C1068   1.532       .  S
C1029      O1038   1.275       .  A
O1030      C1036   1.267       .  A
O1030     Cd1033   2.459       .  S
C1031      O1039   1.279       .  A
C1032      O1037   1.266       .  A
C1032      O1035   1.282       .  A
Cd1033     O1040   2.374       .  S
Cd1033     O1039   2.486       .  S
Cd1033     O1034   2.462       .  S
Cd1033     O1037   2.306       .  S
Cd1033     O1035   2.437       .  S
C1036      O1040   1.275       .  A
O1041      C1044   1.268       .  A
O1041     Cd1046   2.469       .  S
C1042      O1051   1.267       .  A
C1042      O1047   1.273       .  A
C1044      O1052   1.269       .  A
C1045      O1050   1.260       .  A
C1045      O1048   1.270       .  A
C1045      C1058   1.444       .  S
Cd1046     O1053   2.373       .  S
Cd1046     O1052   2.432       .  S
Cd1046     O1051   2.460       .  S
Cd1046     O1047   2.501       .  S
Cd1046     O1050   2.358       .  S
Cd1046     O1048   2.435       .  S
C1049      O1053   1.268   1_455  A
O1054     Cd1059   2.488       .  S
C1055      O1064   1.273       .  A
C1055      O1060   1.267       .  A
O1056      C1062   1.260       .  A
O1056     Cd1059   2.379       .  S
C1057      O1065   1.266       .  A
C1058      O1063   1.263       .  A
C1058      O1061   1.267       .  A
Cd1059     O1066   2.436       .  S
Cd1059     O1064   2.475       .  S
Cd1059     O1060   2.424       .  S
Cd1059     O1063   2.442       .  S
Cd1059     O1061   2.393       .  S
C1062      O1066   1.269       .  A
C1067      C1083   1.524       .  S
C1067      C1122   1.541       .  S
C1067      C1126   1.567   1_545  S
C1068      C1070   1.543   1_455  S
C1068      C1121   1.548       .  S
C1068      C1130   1.570   1_455  S
O1069      C1072   1.271       .  A
O1069     Cd1074   2.495   1_556  S
C1070      O1079   1.271       .  A
C1070      O1075   1.264       .  A
O1071      C1077   1.262       .  A
O1071     Cd1074   2.395       .  S
C1072      O1080   1.266       .  A
C1073      O1076   1.267       .  A
Cd1074     O1081   2.418       .  S
Cd1074     O1080   2.509   1_554  S
Cd1074     O1079   2.506   1_554  S
Cd1074     O1075   2.424   1_554  S
Cd1074     O1076   2.392   1_554  S
C1077      O1081   1.265       .  A
O1082      C1085   1.271       .  A
O1082     Cd1087   2.416       .  S
C1083      O1092   1.274       .  A
O1084      C1090   1.267       .  A
O1084     Cd1087   2.455       .  S
C1085      O1093   1.278       .  A
C1086      O1091   1.264       .  A
C1086      O1089   1.283       .  A
Cd1087     O1094   2.365       .  S
Cd1087     O1093   2.476       .  S
Cd1087     O1088   2.452       .  S
Cd1087     O1091   2.274       .  S
Cd1087     O1089   2.428       .  S
C1090      O1094   1.274       .  A
O1095      C1098   1.267       .  A
O1095     Cd1100   2.462       .  S
C1096      O1105   1.265       .  A
C1096      O1101   1.273       .  A
C1098      O1106   1.275       .  A
C1099      O1104   1.258       .  A
C1099      O1102   1.273       .  A
C1099      C1112   1.451       .  S
Cd1100     O1107   2.335       .  S
Cd1100     O1106   2.476       .  S
Cd1100     O1105   2.446       .  S
Cd1100     O1101   2.497       .  S
Cd1100     O1104   2.365       .  S
Cd1100     O1102   2.449       .  S
C1103      O1107   1.270       .  A
O1108     Cd1113   2.528       .  S
C1109      O1118   1.272       .  A
C1109      O1114   1.268       .  A
O1110      C1116   1.259       .  A
O1110     Cd1113   2.381       .  S
C1111      O1119   1.269       .  A
C1112      O1117   1.262       .  A
C1112      O1115   1.270       .  A
Cd1113     O1120   2.469       .  S
Cd1113     O1118   2.462       .  S
Cd1113     O1114   2.474       .  S
Cd1113     O1117   2.451       .  S
Cd1113     O1115   2.409       .  S
C1116      O1120   1.270       .  A
C1125      C1126   1.375       .  D
C1125      H1127   1.085       .  S
C1126      H1128   1.083       .  S
C1129      C1130   1.366       .  D
C1129      H1131   1.088       .  S
C1130      H1132   1.085       .  S
C1133      H1135   1.088       .  S
C1134      H1136   1.085   1_655  S
C1137      C1138   1.364       .  D
C1137      H1139   1.082       .  S
C1138      H1140   1.088       .  S
C1141      C1142   1.368       .  D
C1141      H1143   1.086       .  S
C1142      H1144   1.086       .  S
C1145      H1147   1.085       .  S
C1146      H1148   1.085       .  S
C1149      C1150   1.361       .  D
C1149      H1151   1.088       .  S
C1150      H1152   1.080       .  S
