geometry optimzed in LAMMPS
_audit_creation_date              2020-11-30 
_audit_creation_method            'lammps2cif' 
_symmetry_space_group_name_H-M    'P1' 
_symmetry_Int_Tables_number       1 
_symmetry_cell_setting            triclinic 
loop_ 
_symmetry_equiv_pos_as_xyz 
  x,y,z 
_cell_length_a                    41.706225192909415 
_cell_length_b                    44.39162463666463 
_cell_length_c                    36.992006515350816 
_cell_angle_alpha                 90.05107931854782 
_cell_angle_beta                  89.83452956082118 
_cell_angle_gamma                 89.90460318180199 
loop_ 
_atom_site_label 
_atom_site_type_symbol 
_atom_site_fract_x 
_atom_site_fract_y 
_atom_site_fract_z 
_atom_site_charge 
C1          C  0.44672968  0.19147906  0.35525742     0.42110
N2          N  0.40772123  0.18987021  0.31839683     0.01000
C3          C  0.39468166  0.21499785  0.13502860    -0.06880
H4          H  0.32971740  0.27830387  0.21331940     0.06490
C5          C  0.26314958  0.20335753  0.25515131    -0.07230
Co6        Co  0.42286814  0.20599159  0.24247400     0.74180
N7          N  0.36661108  0.24509021  0.22167160    -0.26410
Co8        Co  0.34805737  0.20829648  0.19507694     0.74070
C9          C  0.25812379  0.23361346  0.24065751     0.42210
N10         N  0.31899759  0.16606350  0.30544343     0.00610
N11         N  0.30315053  0.21535432  0.22078642     0.00720
N12         N  0.44182791  0.21886452  0.16424568    -0.47260
H13         H  0.47939048  0.21246146  0.31120272     0.06480
N14         N  0.39369188  0.24479619  0.24069211     0.01000
N15         N  0.33173505  0.16725538  0.17273750     0.00740
C16         C  0.32287893  0.12858030  0.13915204     0.42350
N17         N  0.34666576  0.16353456  0.32242253    -0.25870
C18         C  0.47673368  0.15660546  0.23607185    -0.06790
N19         N  0.41663734  0.18342399  0.35130851    -0.46970
N20         N  0.33435484  0.15716436  0.13894826    -0.47190
C21         C  0.48232622  0.12739141  0.25341953     0.42120
N22         N  0.41965527  0.20653807  0.18547434     0.00990
N23         N  0.37065961  0.11575728  0.27631230    -0.25890
N24         N  0.42888692  0.20506992  0.29968168    -0.26380
N25         N  0.34308376  0.11494567  0.25932676     0.00630
H26         H  0.40607930  0.08293413  0.29126140     0.06520
H27         H  0.30230225  0.10153207  0.18670679     0.06560
N28         N  0.39154755  0.20516853  0.16894212    -0.26430
N29         N  0.29153702  0.19419159  0.24172758    -0.26040
N30         N  0.43473834  0.14407482  0.26779357     0.01000
C31         C  0.37280931  0.28777886  0.24922288     0.42390
C32         C  0.34380130  0.17636569  0.35497978    -0.07290
N33         N  0.31920046  0.14697492  0.19477570    -0.26040
H34         H  0.24816793  0.19063545  0.27350132     0.06540
N35         N  0.39836345  0.27054183  0.25783510    -0.47260
H36         H  0.36259077  0.17954249  0.37452581     0.06530
C37         C  0.36104562  0.07022534  0.26003921     0.42230
C38         C  0.45570462  0.20643623  0.32071030    -0.06790
Co39       Co  0.38972725  0.15295037  0.29601159     0.73820
N40         N  0.29759189  0.18210314  0.32433139    -0.46980
C41         C  0.42761622  0.22467922  0.13213503     0.42490
N42         N  0.45539332  0.12147938  0.27312558    -0.46970
Co43       Co  0.31728038  0.15482340  0.25048332     0.73890
C44         C  0.31215289  0.12214513  0.17582619    -0.07300
C45         C  0.35224846  0.27160937  0.22520224    -0.06860
N46         N  0.44687166  0.16484908  0.24600277    -0.26390
N47         N  0.28393831  0.23947107  0.21929520    -0.47150
H48         H  0.37481975  0.22108853  0.11776461     0.06500
C49         C  0.38347975  0.08862027  0.27869785    -0.07270
Cl50       Cl  0.36991594  0.18027794  0.24507663    -0.50270
C51         C  0.31226245  0.18981067  0.35557998     0.42260
H52         H  0.49351246  0.17054999  0.22129611     0.06470
N53         N  0.33636805  0.08735376  0.24815578    -0.46990
C54         C  0.26348816  0.98308627  0.24134366     0.42110
N55         N  0.30663501  0.46154781  0.22154297     0.01000
C56         C  0.38992377  0.33644256  0.27945495    -0.06880
H57         H  0.36349063  0.41946701  0.38111038     0.06490
C58         C  0.44470852  0.47061387  0.33209583    -0.07230
Co59       Co  0.32185608  0.40176192  0.25328784     0.74180
N60         N  0.34956979  0.40787062  0.32638662    -0.26410
Co61       Co  0.39304546  0.40152281  0.29899305     0.74070
C62         C  0.43504582  0.45554076  0.36660886     0.42210
N63         N  0.39017270  0.99719070  0.24631365     0.00610
N64         N  0.40756605  0.43901220  0.32246264     0.00720
N65         N  0.34167702  0.33481284  0.25146541    -0.47260
H66         H  0.25129191  0.44125338  0.27599263     0.06480
N67         N  0.32229546  0.41107785  0.30879612     0.01000
N68         N  0.43742701  0.39735014  0.26955537     0.00740
C69         C  0.48211119  0.38101276  0.24668975     0.42350
N70         N  0.36469331  0.99588604  0.22484048    -0.25870
C71         C  0.32621356  0.36752602  0.18014792    -0.06790
N72         N  0.28867863  0.98616195  0.21898338    -0.46970
N73         N  0.45704344  0.37360624  0.26840853    -0.47190
C74         C  0.33875864  0.37266136  0.14376343     0.42120
N75         N  0.34844002  0.36240325  0.26232355     0.00990
N76         N  0.39467631  0.46027882  0.17283201    -0.25890
N77         N  0.29486323  0.44138349  0.24373605    -0.26380
N78         N  0.42101309  0.46480768  0.19189143     0.00630
H79         H  0.37485394  0.48294594  0.12666491     0.06520
H80         H  0.49094268  0.42608438  0.21728156     0.06560
N81         N  0.37655186  0.36356415  0.27802350    -0.26430
N82         N  0.42492464  0.45933469  0.30616024    -0.26040
N83         N  0.34030547  0.41414761  0.17614955     0.01000
C84         C  0.31398198  0.43075695  0.36109561     0.42390
C85         C  0.34939135  0.02216958  0.22525734    -0.07290
N86         N  0.44823021  0.42013392  0.24976590    -0.26040
H87         H  0.46479418  0.48547607  0.32721034     0.06540
N88         N  0.30042093  0.42550778  0.32843099    -0.47260
H89         H  0.32822172  0.02813296  0.21012192     0.06530
C90         C  0.42398720  0.49613892  0.14651070     0.42230
C91         C  0.26681547  0.45249996  0.25685957    -0.06790
Co92       Co  0.35131628  0.45732198  0.19783566     0.73820
N93         N  0.39297826  0.02371017  0.26201912    -0.46980
C94         C  0.36692029  0.31778132  0.26163582     0.42490
N95         N  0.34688035  0.40256920  0.14374803    -0.46970
Co96       Co  0.42192475  0.46068616  0.24863144     0.73890
C97         C  0.47627089  0.41198166  0.23446041    -0.07300
C98         C  0.34555867  0.41774522  0.36037608    -0.06860
N99         N  0.32780025  0.39380095  0.19793476    -0.26390
N100        N  0.41212973  0.43700909  0.35715180    -0.47150
H101        H  0.41278552  0.33083084  0.29142490     0.06500
C102        C  0.39561611  0.47754397  0.14286016    -0.07270
Cl103      Cl  0.37226963  0.43025252  0.24935406    -0.50270
C104        C  0.36758552  0.03977930  0.25019580     0.42260
H105        H  0.31724549  0.34663074  0.19112737     0.06470
N106        N  0.43905041  0.48575713  0.17650002    -0.46990
C107        C  0.01393010  0.11124456  0.25684938     0.42110
N108        N  0.05038538  0.07644156  0.25505693     0.01000
C109        C  0.20530662  0.06848158  0.32109285    -0.06880
H110        H  0.17814220  0.16091781  0.21484156     0.06490
C111        C  0.15361801  0.08024508  0.13892870    -0.07230
Co112      Co  0.11193096  0.09401142  0.29516324     0.74180
N113        N  0.15546998  0.12731120  0.24890853    -0.26410
Co114      Co  0.18078996  0.08588277  0.24487404     0.74070
C115        C  0.16553643  0.11190615  0.13985468     0.42210
N116        N  0.09995063  0.03212962  0.17688009     0.00610
N117        N  0.17388285  0.08932364  0.19075938     0.00720
N118        N  0.16111090  0.07985074  0.35318471    -0.47260
H119        H  0.04781805  0.14347194  0.28711285     0.06480
N120        N  0.12762832  0.12777659  0.26549430     0.01000
N121        N  0.20446859  0.04328714  0.23864007     0.00740
C122        C  0.23493120  0.00341384  0.24014626     0.42350
N123        N  0.07313784  0.02988469  0.19596294    -0.25870
C124        C  0.09585675  0.06220188  0.35949347    -0.06790
N125        N  0.02002440  0.08248967  0.24642561    -0.46970
N126        N  0.23314616  0.03322122  0.24951423    -0.47190
C127        C  0.06906689  0.04493906  0.37011983     0.42120
N128        N  0.15745528  0.08786398  0.31910578     0.00990
N129        N  0.10129779  0.49564823  0.25304580    -0.25890
N130        N  0.06476041  0.09905979  0.27180190    -0.26380
N131        N  0.12691395  0.49326272  0.23190571     0.00630
H132        H  0.07776300  0.46452984  0.28915770     0.06520
H133        H  0.19885301  0.47586136  0.20788618     0.06560
N134        N  0.18321755  0.08172303  0.29981490    -0.26430
N135        N  0.15918241  0.06838218  0.17200534    -0.26040
N136        N  0.07656763  0.03957199  0.31220633     0.01000
C137        C  0.12761086  0.16942453  0.23807927     0.42390
C138        C  0.05134280  0.01651153  0.17401404    -0.07290
N139        N  0.18857209  0.02219275  0.22153355    -0.26040
H140        H  0.14082364  0.06911777  0.11734485     0.06540
N141        N  0.11056967  0.15213408  0.26007717    -0.47260
H142        H  0.02834998  0.00787075  0.18266864     0.06530
C143        C  0.12406444  0.45099090  0.25926113     0.42230
C144        C  0.04366298  0.12220864  0.27363043    -0.06790
Co145      Co  0.07420026  0.03485191  0.25392748     0.73820
N146        N  0.09779937  0.02153651  0.14369802    -0.46980
C147        C  0.19012700  0.06708770  0.35646798     0.42490
N148        N  0.05700402  0.03168605  0.33932358    -0.46970
Co149      Co  0.14376508  0.02890233  0.19983465     0.73890
C150        C  0.20578350  0.49665836  0.22086219    -0.07300
C151        C  0.15844576  0.15405851  0.23203906    -0.06860
N152        N  0.09712926  0.05939366  0.32417291    -0.26390
N153        N  0.17762696  0.11478873  0.17312142    -0.47150
H154        H  0.22782259  0.05885476  0.31238576     0.06500
C155        C  0.09719195  0.46967330  0.27076013    -0.07270
Cl156      Cl  0.12746428  0.06084756  0.24829692    -0.50270
C157        C  0.06832683  0.01087372  0.13934037     0.42260
H158        H  0.10553933  0.08139536  0.37384318     0.06470
N159        N  0.14086952  0.46669151  0.23465182    -0.46990
C160        C  0.23037837  0.25401622  0.24927462     0.42110
N161        N  0.19793209  0.29204444  0.25313150     0.01000
C162        C  0.04556353  0.30699608  0.32171087    -0.06880
H163        H  0.07175807  0.20981087  0.21585944     0.06490
C164        C  0.09895633  0.28818465  0.13912212    -0.07230
Co165      Co  0.13749201  0.27679883  0.29661879     0.74180
N166        N  0.09376893  0.24272708  0.25130277    -0.26410
Co167      Co  0.06917238  0.28379118  0.24574578     0.74070
C168        C  0.08887515  0.25596167  0.14055565     0.42210
N169        N  0.15033412  0.33896374  0.17610272     0.00610
N170        N  0.07740788  0.27934671  0.19081867     0.00720
N171        N  0.08972173  0.29708660  0.35387267    -0.47260
H172        H  0.19731769  0.22466245  0.28419458     0.06480
N173        N  0.12106036  0.24204231  0.26862336     0.01000
N174        N  0.04471812  0.32471023  0.23802016     0.00740
C175        C  0.01069206  0.36165702  0.23845956     0.42350
N176        N  0.17698927  0.33951943  0.19542116    -0.25870
C177        C  0.15595867  0.30975762  0.35982149    -0.06790
N178        N  0.22610943  0.28326376  0.23934675    -0.46970
N179        N  0.01547609  0.33276788  0.24918626    -0.47190
C180        C  0.18131757  0.32935197  0.36906182     0.42120
N181        N  0.09237362  0.28548874  0.32101424     0.00990
N182        N  0.14800154  0.37418336  0.25195539    -0.25890
N183        N  0.18343147  0.27041589  0.27162339    -0.26380
N184        N  0.12191697  0.37641793  0.23155553     0.00630
H185        H  0.17150555  0.40530552  0.28799814     0.06520
H186        H  0.04533662  0.39179200  0.20631200     0.06560
N187        N  0.06658861  0.29076628  0.30144732    -0.26430
N188        N  0.09175585  0.30047091  0.17177570    -0.26040
N189        N  0.17360833  0.33138041  0.31101659     0.01000
C190        C  0.12177838  0.20106339  0.23938412     0.42390
C191        C  0.20018537  0.35166391  0.17422815    -0.07290
N192        N  0.05934372  0.34635981  0.22039642    -0.26040
H193        H  0.11223211  0.29935175  0.11785454     0.06540
N194        N  0.13817113  0.21768869  0.26273740    -0.47260
H195        H  0.22358508  0.35868199  0.18350483     0.06530
C196        C  0.12467299  0.41854909  0.25926309     0.42230
C197        C  0.20239607  0.24586276  0.27100818    -0.06790
Co198      Co  0.17536197  0.33476865  0.25275426     0.73820
N199        N  0.15393583  0.35003152  0.14322155    -0.46980
C200        C  0.06150538  0.31164310  0.35636457     0.42490
N201        N  0.19247054  0.34180827  0.33737911    -0.46970
Co202      Co  0.10558427  0.34081116  0.19911607     0.73890
C203        C  0.03978682  0.37052120  0.21909437    -0.07300
C204        C  0.09104367  0.21632090  0.23367843    -0.06860
N205        N  0.15411525  0.31121492  0.32437623    -0.26390
N206        N  0.07551546  0.25345245  0.17351258    -0.47150
H207        H  0.02347772  0.31696149  0.31260440     0.06500
C208        C  0.15198748  0.40010128  0.26983327    -0.07270
Cl209      Cl  0.12209532  0.30919358  0.24834392    -0.50270
C210        C  0.18441978  0.35875041  0.13954786     0.42260
H211        H  0.14653535  0.29130282  0.37576461     0.06470
N212        N  0.10761837  0.40279207  0.23495078    -0.46990
C213        C  0.31585358  0.10980423  0.10721280     0.42110
N214        N  0.28423474  0.09018095  0.06778005     0.01000
C215        C  0.27948219  0.10444464  0.88720106    -0.06880
H216        H  0.33088951  0.20332437  0.96361886     0.06490
C217        C  0.22612348  0.21060352  0.02513282    -0.07230
Co218      Co  0.30874832  0.09334997  0.99296906     0.74180
N219        N  0.31817724  0.15704482  0.97396008    -0.26410
Co220      Co  0.27356358  0.15411930  0.95155062     0.74070
C221        C  0.25313773  0.22993437  0.01523548     0.42210
N222        N  0.20238100  0.13713020  0.05929040     0.00610
N223        N  0.25762683  0.18789393  0.98726781     0.00720
N224        N  0.30272277  0.06765557  0.91844276    -0.47260
H225        H  0.35473934  0.11850904  0.06434709     0.06480
N226        N  0.33304751  0.13442506  0.98922597     0.01000
N227        N  0.23002509  0.15748396  0.92781129     0.00740
C228        C  0.20147825  0.19347979  0.90500671     0.42350
N229        N  0.22271660  0.11739049  0.07226697    -0.25870
C230        C  0.28726461  0.02661646  0.97563742    -0.06790
N231        N  0.28660268  0.09793178  0.10220714    -0.46970
N232        N  0.22877356  0.17777259  0.90156741    -0.47190
C233        C  0.25656065  0.01099676  0.98036011     0.42120
N234        N  0.30104087  0.09258221  0.93779175     0.00990
N235        N  0.19503548  0.07984063  0.01629011    -0.25890
N236        N  0.31056544  0.09604730  0.04930718    -0.26380
N237        N  0.18068670  0.10226118  0.99902689     0.00630
H238        H  0.18060798  0.03436452  0.02936580     0.06520
H239        H  0.16290752  0.18661280  0.94829093     0.06560
N240        N  0.28681059  0.11493390  0.92067411    -0.26430
N241        N  0.23117188  0.18479992  0.00709299    -0.26040
N242        N  0.25655406  0.05117478  0.01130203     0.01000
C243        C  0.36560136  0.17183859  0.99278486     0.42390
C244        C  0.21568414  0.11025267  0.10583693    -0.07290
N245        N  0.20359873  0.15680813  0.94768359    -0.26040
H246        H  0.20554607  0.21561094  0.04194535     0.06540
N247        N  0.36237292  0.14199129  0.00002805    -0.47260
H248        H  0.22429040  0.09008986  0.11914335     0.06530
C249        C  0.14724568  0.06477919  0.99663746     0.42230
C250        C  0.33202468  0.10868390  0.07200370    -0.06790
Co251      Co  0.24004788  0.08442217  0.04194409     0.73820
N252        N  0.17802895  0.14110192  0.08223454    -0.46980
C253        C  0.28929594  0.07201852  0.88589747     0.42490
N254        N  0.23964256  0.02709682  0.00395361    -0.46970
Co255      Co  0.20342782  0.14534180  0.00301972     0.73890
C256        C  0.18400475  0.17826848  0.93448463    -0.07300
C257        C  0.33668780  0.18156361  0.97502087    -0.06860
N258        N  0.28413250  0.05236203  0.99455418    -0.26390
N259        N  0.27106705  0.21457742  0.99120063    -0.47150
H260        H  0.26626663  0.11688095  0.86699233     0.06500
C261        C  0.17574073  0.05561768  0.01618436    -0.07270
Cl262      Cl  0.25601024  0.11960249  0.99690788    -0.50270
C263        C  0.18591153  0.12485003  0.11208189     0.42260
H264        H  0.30695126  0.02077475  0.95785270     0.06470
N265        N  0.15167041  0.09426793  0.98717751    -0.46990
C266        C  0.19418153  0.37899362  0.10963820     0.42110
N267        N  0.22536339  0.39983042  0.07042428     0.01000
C268        C  0.21637707  0.38691351  0.88729084    -0.06880
H269        H  0.17137020  0.28991286  0.96250551     0.06490
C270        C  0.28051985  0.28163622  0.02322746    -0.07230
Co271      Co  0.19732572  0.39822058  0.99655766     0.74180
N272        N  0.18642667  0.33489177  0.97650946    -0.26410
Co273      Co  0.23089125  0.33836076  0.95189898     0.74070
C274        C  0.25294569  0.26261556  0.01494843     0.42210
N275        N  0.30566694  0.35290186  0.05860222     0.00610
N276        N  0.24851389  0.30425036  0.98605227     0.00720
N277        N  0.19106099  0.42192993  0.92112735    -0.47260
H278        H  0.15350932  0.37500347  0.06843607     0.06480
N279        N  0.17269228  0.35710390  0.99419908     0.01000
N280        N  0.27417144  0.33673717  0.92588204     0.00740
C281        C  0.30536673  0.30800296  0.89492953     0.42350
N282        N  0.28646867  0.37347949  0.07182510    -0.25870
C283        C  0.22084870  0.46380378  0.97617324    -0.06790
N284        N  0.22388735  0.38973936  0.10422937    -0.46970
N285        N  0.27597845  0.32012006  0.89599168    -0.47190
C286        C  0.25174504  0.47924185  0.98035633     0.42120
N287        N  0.19968710  0.39854029  0.94076818     0.00990
N288        N  0.31340808  0.41145732  0.01529011    -0.25890
N289        N  0.19822315  0.39587228  0.05289605    -0.26380
N290        N  0.32751584  0.38871900  0.99830694     0.00630
H291        H  0.32948253  0.45617036  0.02968890     0.06520
H292        H  0.34581791  0.31363035  0.93636026     0.06560
N293        N  0.21444097  0.37713877  0.92211280    -0.26430
N294        N  0.27551998  0.30715358  0.00476196    -0.26040
N295        N  0.25113690  0.43978999  0.01259539     0.01000
C296        C  0.13828451  0.32091258  0.99531850     0.42390
C297        C  0.29169729  0.37823421  0.10635282    -0.07290
N298        N  0.30142401  0.33760733  0.94436336    -0.26040
H299        H  0.30116890  0.27678832  0.03986710     0.06540
N300        N  0.14341519  0.34985886  0.00580302    -0.47260
H301        H  0.28318462  0.39781753  0.12101251     0.06530
C302        C  0.36277228  0.42495559  0.99741344     0.42230
C303        C  0.17680567  0.38356599  0.07578116    -0.06790
Co304      Co  0.26862808  0.40654166  0.04253793     0.73820
N305        N  0.32782489  0.34572140  0.08325939    -0.46980
C306        C  0.20104237  0.41717606  0.88720328     0.42490
N307        N  0.26847636  0.46336888  0.00416919    -0.46970
Co308      Co  0.30353068  0.34627103  0.00108833     0.73890
C309        C  0.32276310  0.32067502  0.92603296    -0.07300
C310        C  0.16665482  0.31115595  0.97583096    -0.06860
N311        N  0.22338050  0.43861794  0.99617963    -0.26390
N312        N  0.23467806  0.27785401  0.99120126    -0.47150
H313        H  0.22747802  0.37483575  0.86514997     0.06500
C314        C  0.33361833  0.43512672  0.01563765    -0.07270
Cl315      Cl  0.25039726  0.37230922  0.99755871    -0.50270
C316        C  0.31908841  0.36064205  0.11428028     0.42260
H317        H  0.20131860  0.46950574  0.95832062     0.06470
N318        N  0.35754318  0.39548350  0.98851007    -0.46990
C319        C  0.06157065  0.48942195  0.10971895     0.42110
N320        N  0.03218057  0.46640234  0.07084668     0.01000
C321        C  0.03221308  0.47337879  0.88974704    -0.06880
H322        H  0.08410243  0.07514811  0.95666875     0.06490
C323        C  0.47829355  0.08558655  0.01945612    -0.07230
Co324      Co  0.05917451  0.46708538  0.99669853     0.74180
N325        N  0.06996201  0.03015459  0.97244795    -0.26410
Co326      Co  0.02475857  0.02509912  0.95003740     0.74070
C327        C  0.50639699  0.10354259  0.00917198     0.42210
N328        N  0.45302615  0.01487733  0.05968069     0.00610
N329        N  0.00834762  0.06082984  0.98214782     0.00720
N330        N  0.05629852  0.43825686  0.92300594    -0.47260
H331        H  0.10199278  0.49591731  0.06800706     0.06480
N332        N  0.08407201  0.00868629  0.99091930     0.01000
N333        N  0.48104874  0.02388720  0.92583549     0.00740
C334        C  0.44822530  0.04415701  0.88881690     0.42350
N335        N  0.47202656  0.49404909  0.07244374    -0.25870
C336        C  0.03702307  0.39986117  0.98195031    -0.06790
N337        N  0.03312500  0.47644180  0.10458047    -0.46970
N338        N  0.47855075  0.03532185  0.89299645    -0.47190
C339        C  0.00596082  0.38471958  0.98615751     0.42120
N340        N  0.05348660  0.46373721  0.94121945     0.00990
N341        N  0.44341683  0.45472459  0.01776576    -0.25890
N342        N  0.05899397  0.47176406  0.05299538    -0.26380
N343        N  0.42930354  0.47746098  0.00101023     0.00630
H344        H  0.42762364  0.40950709  0.03047800     0.06520
H345        H  0.40789712  0.04403174  0.93161354     0.06560
N346        N  0.03906181  0.48506853  0.92262698    -0.26430
N347        N  0.48187590  0.05917119  0.00212121    -0.26040
N348        N  0.00555728  0.42575720  0.01526894     0.01000
C349        C  0.11807261  0.04583197  0.99025690     0.42390
C350        C  0.46858513  0.99068670  0.10744333    -0.07290
N351        N  0.45392089  0.02457972  0.94448287    -0.26040
H352        H  0.45849139  0.09157105  0.03698646     0.06540
N353        N  0.11321500  0.01701607  0.00197855    -0.47260
H354        H  0.47681563  0.47102094  0.12205848     0.06530
C355        C  0.39461162  0.44089030  0.99821624     0.42230
C356        C  0.07937150  0.48586029  0.07562574    -0.06790
Co357      Co  0.48858020  0.45980190  0.04400188     0.73820
N358        N  0.43245440  0.02331128  0.08566075    -0.46980
C359        C  0.04302061  0.44140218  0.89009865     0.42490
N360        N  0.98854180  0.40165597  0.00835198    -0.46970
Co361      Co  0.45338064  0.01968971  0.00170433     0.73890
C362        C  0.43145707  0.03686920  0.92284437    -0.07300
C363        C  0.08938938  0.05428412  0.97053366    -0.06860
N364        N  0.03373150  0.42622070  0.99959838    -0.26390
N365        N  0.02323929  0.08691188  0.98543774    -0.47150
H366        H  0.01915673  0.98492594  0.86866542     0.06500
C367        C  0.42341436  0.43084482  0.01721531    -0.07270
Cl368      Cl  0.00634266  0.49311668  0.99799775    -0.50270
C369        C  0.44257278  0.00932975  0.11683152     0.42260
H370        H  0.05712231  0.39322908  0.96520098     0.06470
N371        N  0.39975730  0.47046135  0.99001663    -0.46990
C372        C  0.43876441  0.24682176  0.10533511     0.42110
N373        N  0.47213838  0.26907756  0.07010949     0.01000
C374        C  0.47135258  0.26284206  0.88664237    -0.06880
H375        H  0.43057928  0.16039420  0.96081316     0.06490
C376        C  0.03518601  0.15534006  0.01839162    -0.07230
Co377      Co  0.44785977  0.27047518  0.99496536     0.74180
N378        N  0.44154759  0.20685317  0.97287113    -0.26410
Co379      Co  0.48569751  0.21374101  0.94907836     0.74070
C380        C  0.00801924  0.13627378  0.00809460     0.42210
N381        N  0.05687305  0.22699992  0.05829486     0.00610
N382        N  0.00418329  0.17865853  0.98081320     0.00720
N383        N  0.44446991  0.29665625  0.92069368    -0.47260
H384        H  0.40005444  0.24589789  0.06177549     0.06480
N385        N  0.42587517  0.22830349  0.98981881     0.01000
N386        N  0.02908869  0.21753518  0.92465887     0.00740
C387        C  0.06243758  0.19688739  0.88839824     0.42350
N388        N  0.03371343  0.24307102  0.07263866    -0.25870
C389        C  0.47037810  0.33730737  0.97948128    -0.06790
N390        N  0.46892203  0.25723967  0.10285769    -0.46970
N391        N  0.03208012  0.20575302  0.89206836    -0.47190
C392        C  0.50056430  0.35304547  0.98686469     0.42120
N393        N  0.45253214  0.27282636  0.93973518     0.00990
N394        N  0.06162193  0.28606216  0.02079672    -0.25890
N395        N  0.44591387  0.26634934  0.05068456    -0.26380
N396        N  0.07628775  0.26524280  0.00113632     0.00630
H397        H  0.07564820  0.33096395  0.03739881     0.06520
H398        H  0.10224654  0.19775430  0.93148480     0.06560
N399        N  0.46822214  0.25225782  0.92090997    -0.26430
N400        N  0.03035899  0.18147608  0.00088652    -0.26040
N401        N  0.49882614  0.31279473  0.01748512     0.01000
C402        C  0.39539551  0.18930465  0.99336793     0.42390
C403        C  0.03939272  0.24928496  0.10680779    -0.07290
N404        N  0.05602670  0.21742990  0.94346349    -0.26040
H405        H  0.05496191  0.15041308  0.03631215     0.06540
N406        N  0.39740141  0.21904920  0.00150439    -0.47260
H407        H  0.02812974  0.26790538  0.12093972     0.06530
C408        C  0.10905229  0.30267760  0.00139510     0.42230
C409        C  0.42311721  0.25351736  0.07113322    -0.06790
Co410      Co  0.01620904  0.27808457  0.04559590     0.73820
N411        N  0.08195929  0.22656527  0.08076721    -0.46980
C412        C  0.45589759  0.29285694  0.88716347     0.42490
N413        N  0.01598509  0.33702196  0.01162193    -0.46970
Co414      Co  0.05590574  0.22228332  0.00063300     0.73890
C415        C  0.07882128  0.20483451  0.92231333    -0.07300
C416        C  0.42421398  0.18147560  0.97360550    -0.06860
N417        N  0.47231796  0.31156341  0.99855020    -0.26390
N418        N  0.99056496  0.15199104  0.98419538    -0.47150
H419        H  0.48369732  0.25159465  0.86470043     0.06500
C420        C  0.08065303  0.31052216  0.02245662    -0.07270
Cl421      Cl  0.00162367  0.24616262  0.99725622    -0.50270
C422        C  0.07148886  0.23984321  0.11202923     0.42260
H423        H  0.45204849  0.34309850  0.96010549     0.06470
N424        N  0.10491024  0.27405574  0.98945827    -0.46990
C425        C  0.30687386  0.05777521  0.85600715     0.42110
N426        N  0.34587244  0.06122720  0.81904357     0.01000
C427        C  0.36427623  0.02036574  0.64057246    -0.06880
H428        H  0.42822090  0.46958054  0.71770362     0.06490
C429        C  0.49217450  0.04588611  0.75783139    -0.07230
Co430      Co  0.33340663  0.04121426  0.74400701     0.74180
N431        N  0.39092680  0.50246431  0.72601773    -0.26410
Co432      Co  0.40822166  0.03902249  0.69749516     0.74070
C433        C  0.49769310  0.51614069  0.74142248     0.42210
N434        N  0.43372961  0.08610392  0.80822854     0.00610
N435        N  0.45248689  0.03430794  0.72320345     0.00720
N436        N  0.31747968  0.01867869  0.67042414    -0.47260
H437        H  0.27610488  0.53371037  0.81259567     0.06480
N438        N  0.36370519  0.50260021  0.74500934     0.01000
N439        N  0.42350082  0.08038631  0.67382022     0.00740
C440        C  0.43263514  0.11920727  0.64004826     0.42350
N441        N  0.40564436  0.08946210  0.82424399    -0.25870
C442        C  0.27968983  0.09233781  0.73242875    -0.06790
N443        N  0.33622673  0.06784264  0.85166111    -0.46970
N444        N  0.42157225  0.09032854  0.63979220    -0.47190
C445        C  0.27504263  0.12309150  0.74700473     0.42120
N446        N  0.33765549  0.03667391  0.68754302     0.00990
N447        N  0.38299154  0.13430471  0.77477741    -0.25890
N448        N  0.32593591  0.04442040  0.80076307    -0.26380
N449        N  0.41080905  0.13475565  0.75820535     0.00630
H450        H  0.34660086  0.16712541  0.78669298     0.06520
H451        H  0.45236610  0.14631515  0.68770785     0.06560
N452        N  0.36565180  0.03758553  0.67054749    -0.26430
N453        N  0.46353258  0.05516358  0.74496999    -0.26040
N454        N  0.32069067  0.10473285  0.76512116     0.01000
C455        C  0.38530274  0.45973322  0.75397334     0.42390
C456        C  0.40737592  0.07908964  0.85815850    -0.07290
N457        N  0.43568640  0.10090203  0.69585607    -0.26040
H458        H  0.50734887  0.05843969  0.77603632     0.06540
N459        N  0.35929883  0.47676874  0.76224360    -0.47260
H460        H  0.38795972  0.07699731  0.87721274     0.06530
C461        C  0.39169539  0.17895733  0.75498656     0.42230
C462        C  0.29914324  0.04175440  0.82179890    -0.06790
Co463      Co  0.36398437  0.09763298  0.79552895     0.73820
N464        N  0.45430903  0.07140143  0.82928189    -0.46980
C465        C  0.33303783  0.00641444  0.64183709     0.42490
N466        N  0.30127758  0.12853971  0.76751354    -0.46970
Co467      Co  0.43705701  0.09477073  0.75212630     0.73890
C468        C  0.44267304  0.12565465  0.67684948    -0.07300
C469        C  0.40573411  0.47617987  0.72992412    -0.06860
N470        N  0.30872359  0.08309850  0.74441492    -0.26390
N471        N  0.47205095  0.51072733  0.72023539    -0.47150
H472        H  0.38492885  0.01261355  0.62546126     0.06500
C473        C  0.36958999  0.16124487  0.77506232    -0.07270
Cl474      Cl  0.38544466  0.06829001  0.74676047    -0.50270
C475        C  0.43882396  0.06621218  0.86105755     0.42260
H476        H  0.26295480  0.07862863  0.71737466     0.06470
N477        N  0.41700268  0.16178373  0.74484824    -0.46990
C478        C  0.32050766  0.29313072  0.86349573     0.42110
N479        N  0.35188973  0.30424961  0.81989362     0.01000
C480        C  0.35640030  0.28202194  0.63538596    -0.06880
H481        H  0.42397754  0.21972700  0.70257542     0.06490
C482        C  0.48746066  0.29153409  0.75473119    -0.07230
Co483      Co  0.33262077  0.28898152  0.74475786     0.74180
N484        N  0.38795382  0.25247550  0.71758400    -0.26410
Co485      Co  0.40349971  0.29171193  0.69358146     0.74070
C486        C  0.48941717  0.26066121  0.74003211     0.42210
N487        N  0.43623715  0.33274998  0.80634684     0.00610
N488        N  0.44832958  0.28445652  0.71776280     0.00720
N489        N  0.31139159  0.27383285  0.66746519    -0.47260
H490        H  0.28473887  0.27152716  0.82281304     0.06480
N491        N  0.36239204  0.25139497  0.73906014     0.01000
N492        N  0.41645029  0.33513070  0.67451362     0.00740
C493        C  0.41778323  0.37796409  0.64503288     0.42350
N494        N  0.40942924  0.33641045  0.82473624    -0.25870
C495        C  0.28028552  0.33853318  0.73634245    -0.06790
N496        N  0.34798055  0.30561800  0.85486135    -0.46970
N497        N  0.40939510  0.34821764  0.64317475    -0.47190
C498        C  0.27527226  0.36841409  0.75167438     0.42120
N499        N  0.33251233  0.28925552  0.68710934     0.00990
N500        N  0.38171743  0.38276363  0.78008046    -0.25890
N501        N  0.33051823  0.28811652  0.80286988    -0.26380
N502        N  0.40957927  0.38418256  0.76356944     0.00630
H503        H  0.34575778  0.41530667  0.79556219     0.06520
H504        H  0.44076165  0.40159754  0.69315443     0.06560
N505        N  0.35951401  0.29329502  0.66886583    -0.26430
N506        N  0.46071462  0.30403996  0.74031047    -0.26040
N507        N  0.32001540  0.35033270  0.77179037     0.01000
C508        C  0.38400454  0.20835833  0.74220556     0.42390
C509        C  0.41420894  0.32714283  0.85860925    -0.07290
N510        N  0.42956693  0.35433970  0.69721060    -0.26040
H511        H  0.50262359  0.30188644  0.77484878     0.06540
N512        N  0.35911450  0.22488287  0.75455832    -0.47260
H513        H  0.39644494  0.32590309  0.87980057     0.06530
C514        C  0.39118833  0.42912466  0.76514454     0.42230
C515        C  0.30808592  0.28100554  0.82840213    -0.06790
Co516      Co  0.36537653  0.34381578  0.79913132     0.73820
N517        N  0.45852556  0.31801030  0.82514728    -0.46980
C518        C  0.32489721  0.26845234  0.63461608     0.42490
N519        N  0.30075252  0.37428402  0.77338587    -0.46970
Co520      Co  0.43549286  0.34424341  0.75174973     0.73890
C521        C  0.43139930  0.38130602  0.68108899    -0.07300
C522        C  0.40254207  0.22580069  0.71730265    -0.06860
N523        N  0.30835030  0.32929162  0.75008349    -0.26390
N524        N  0.46492805  0.25878995  0.71633403    -0.47150
H525        H  0.37634154  0.27692675  0.61763824     0.06500
C526        C  0.36847210  0.40995156  0.78290990    -0.07270
Cl527      Cl  0.38403810  0.31734246  0.74693167    -0.50270
C528        C  0.44579318  0.31373827  0.85843782     0.42260
H529        H  0.26508054  0.32566314  0.71843781     0.06470
N530        N  0.41617395  0.41210551  0.75361711    -0.46990
C531        C  0.18526039  0.20533258  0.87331649     0.42110
N532        N  0.16500191  0.18904501  0.82444083     0.01000
C533        C  0.15207809  0.24399742  0.65207282    -0.06880
H534        H  0.08609388  0.28977168  0.72725219     0.06490
C535        C  0.02076776  0.20759352  0.75506931    -0.07230
Co536      Co  0.17985980  0.21918659  0.75514820     0.74180
N537        N  0.12165681  0.25577270  0.73792179    -0.26410
Co538      Co  0.10842450  0.21975204  0.70453463     0.74070
C539        C  0.01716645  0.23906054  0.74134305     0.42210
N540        N  0.08040060  0.16130822  0.80576424     0.00610
N541        N  0.06366507  0.22107960  0.72742420     0.00720
N542        N  0.19739281  0.24862089  0.68343551    -0.47260
H543        H  0.21305390  0.24228686  0.84131792     0.06480
N544        N  0.14815809  0.25571807  0.75775630     0.01000
N545        N  0.09684628  0.17885606  0.67572869     0.00740
C546        C  0.09390836  0.13998665  0.63911847     0.42350
N547        N  0.10765623  0.15606240  0.82262582    -0.25870
C548        C  0.23836291  0.17312575  0.74013301    -0.06790
N549        N  0.16688450  0.18466566  0.85905066    -0.46970
N550        N  0.10180491  0.17001509  0.64166301    -0.47190
C551        C  0.24447200  0.14116225  0.74924260     0.42120
N552        N  0.17874447  0.22792098  0.69869549     0.00990
N553        N  0.13743152  0.12032802  0.76511409    -0.25890
N554        N  0.18059358  0.21253014  0.81243908    -0.26380
N555        N  0.10889647  0.11928811  0.75058187     0.00630
H556        H  0.17795295  0.09044494  0.76626908     0.06520
H557        H  0.07139920  0.11100532  0.68275822     0.06560
N558        N  0.15169585  0.22520431  0.68039948    -0.26430
N559        N  0.05092711  0.19861281  0.74547188    -0.26040
N560        N  0.19692407  0.15448509  0.76750957     0.01000
C561        C  0.12776301  0.29950288  0.76554725     0.42390
C562        C  0.10327162  0.16149724  0.85799967    -0.07290
N563        N  0.08437378  0.15676711  0.69481502    -0.26040
H564        H  0.00341002  0.19395787  0.76939997     0.06540
N565        N  0.15328701  0.28200217  0.77355491    -0.47260
H566        H  0.12093389  0.16033115  0.87909550     0.06530
C567        C  0.13361138  0.07890992  0.73404658     0.42230
C568        C  0.19585162  0.22409182  0.84184239    -0.06790
Co569      Co  0.15178803  0.15445400  0.79487194     0.73820
N570        N  0.05846527  0.17334391  0.82745835    -0.46980
C571        C  0.18146278  0.26096711  0.65492716     0.42490
N572        N  0.21779634  0.13176195  0.76667263    -0.46970
Co573      Co  0.07969320  0.15854364  0.74975014     0.73890
C574        C  0.08148577  0.13227939  0.67428171    -0.07300
C575        C  0.10712272  0.28235523  0.74177151    -0.06860
N576        N  0.20822514  0.17919496  0.75200261    -0.26390
N577        N  0.04480292  0.24497161  0.72440859    -0.47150
H578        H  0.13105820  0.25039224  0.63680643     0.06500
C579        C  0.15442846  0.09617893  0.75639501    -0.07270
Cl580      Cl  0.13012881  0.18809218  0.75080270    -0.50270
C581        C  0.07185385  0.17476986  0.86071271     0.42260
H582        H  0.25445758  0.18924057  0.72786201     0.06470
N583        N  0.10516171  0.09377124  0.73248093    -0.46990
C584        C  0.06089886  0.42758316  0.86034470     0.42110
N585        N  0.09665012  0.43519430  0.82030343     0.01000
C586        C  0.11108267  0.39841782  0.63920350    -0.06880
H587        H  0.17492045  0.33869919  0.72784244     0.06490
C588        C  0.24181034  0.41890930  0.75893655    -0.07230
Co589      Co  0.08224718  0.41374487  0.74575576     0.74180
N590        N  0.13860946  0.37325963  0.73062214    -0.26410
Co591      Co  0.15703974  0.40900018  0.69970686     0.74070
C592        C  0.24728578  0.38845177  0.74535909     0.42210
N593        N  0.18489646  0.45926758  0.80612770     0.00610
N594        N  0.20157450  0.40472443  0.72614327     0.00720
N595        N  0.06340279  0.39753172  0.66804004    -0.47260
H596        H  0.02964823  0.40154421  0.81900226     0.06480
N597        N  0.11068986  0.37489238  0.74799469     0.01000
N598        N  0.17321022  0.44950597  0.67370592     0.00740
C599        C  0.18274837  0.48798062  0.63956824     0.42350
N600        N  0.15744865  0.46353342  0.82314824    -0.25870
C601        C  0.03019131  0.46473463  0.73156799    -0.06790
N602        N  0.08857871  0.44067493  0.85374275    -0.46970
N603        N  0.17083977  0.45929771  0.63957440    -0.47190
C604        C  0.02530523  0.99514392  0.74648707     0.42120
N605        N  0.08577304  0.40987596  0.68886011     0.00990
N606        N  0.13199505  0.00650910  0.76940088    -0.25890
N607        N  0.07694070  0.41726956  0.80306680    -0.26380
N608        N  0.15980998  0.00632167  0.75291231     0.00630
H609        H  0.09274497  0.03797641  0.77181551     0.06520
H610        H  0.20425007  0.01485338  0.68601686     0.06560
N611        N  0.11406784  0.40968964  0.67258875    -0.26430
N612        N  0.21296162  0.42690326  0.74572456    -0.26040
N613        N  0.07004439  0.47684075  0.76636390     0.01000
C614        C  0.12980057  0.33188304  0.76246080     0.42390
C615        C  0.16043128  0.45294881  0.85694048    -0.07290
N616        N  0.18602651  0.47017920  0.69491086    -0.26040
H617        H  0.25708269  0.43278881  0.77562042     0.06540
N618        N  0.10417012  0.35014226  0.76643285    -0.47260
H619        H  0.14154686  0.45093337  0.87671433     0.06530
C620        C  0.13599065  0.04691844  0.73655118     0.42230
C621        C  0.05222547  0.41182025  0.82626943    -0.06790
Co622      Co  0.11431992  0.47101999  0.79511826     0.73820
N623        N  0.20567168  0.44327446  0.82572739    -0.46980
C624        C  0.07777394  0.38993478  0.63638617     0.42490
N625        N  0.05074140  0.00068130  0.76798547    -0.46970
Co626      Co  0.18687676  0.46635083  0.75042213     0.73890
C627        C  0.19374980  0.49435484  0.67561602    -0.07300
C628        C  0.15223050  0.34676469  0.73824070    -0.06860
N629        N  0.05842074  0.45532107  0.74536251    -0.26390
N630        N  0.22140227  0.38124883  0.72506583    -0.47150
H631        H  0.13086867  0.39148617  0.62213367     0.06500
C632        C  0.11595449  0.03142721  0.76159452    -0.07270
Cl633      Cl  0.13492032  0.44001424  0.74731522    -0.50270
C634        C  0.19160415  0.43848755  0.85817669     0.42260
H635        H  0.01419370  0.45134103  0.71513509     0.06470
N636        N  0.16371880  0.03115178  0.73353559    -0.46990
C637        C  0.19804627  0.04906756  0.38829253     0.42110
N638        N  0.20923356  0.01264317  0.42424784     0.01000
C639        C  0.22108527  0.02378942  0.60689015    -0.06880
H640        H  0.28977228  0.10327149  0.51843910     0.06490
C641        C  0.35288116  0.02946059  0.48289861    -0.07230
Co642      Co  0.19543386  0.03133962  0.49971872     0.74180
N643        N  0.25028363  0.07232813  0.51691146    -0.26410
Co644      Co  0.26746644  0.03744030  0.54418010     0.74070
C645        C  0.35758918  0.06006054  0.49728701     0.42210
N646        N  0.29732192  0.47485868  0.43914768     0.00610
N647        N  0.31222924  0.04235623  0.51626317     0.00720
N648        N  0.17670222  0.01060706  0.57626004    -0.47260
H649        H  0.17628403  0.07764512  0.43347631     0.06480
N650        N  0.22250186  0.07203956  0.50043525     0.01000
N651        N  0.28373753  0.50108450  0.57004274     0.00740
C652        C  0.31579474  0.49101564  0.61295265     0.42350
N653        N  0.26899581  0.47555434  0.42321596    -0.25870
C654        C  0.14355069  0.48019829  0.51128352    -0.06790
N655        N  0.21099466  0.02094086  0.38966856    -0.46970
N656        N  0.28917717  0.50513901  0.60435408    -0.47190
C657        C  0.14196506  0.44836119  0.50079467     0.42120
N658        N  0.19716334  0.02598565  0.55551123     0.00990
N659        N  0.24569560  0.43766911  0.48070148    -0.25890
N660        N  0.19591003  0.03374398  0.44447003    -0.26380
N661        N  0.27312247  0.43945940  0.49860078     0.00630
H662        H  0.21065920  0.40222669  0.47544959     0.06520
H663        H  0.34870479  0.46414445  0.57366138     0.06560
N664        N  0.22423512  0.03181832  0.57222989    -0.26430
N665        N  0.32423158  0.02044675  0.49604116    -0.26040
N666        N  0.18418521  0.46830774  0.47819873     0.01000
C667        C  0.24711759  0.11226112  0.48287611     0.42390
C668        C  0.27103393  0.46437034  0.38981196    -0.07290
N669        N  0.30386056  0.48269483  0.55394251    -0.26040
H670        H  0.36923485  0.01570750  0.46724399     0.06540
N671        N  0.21908112  0.09665479  0.48032938    -0.47260
H672        H  0.25068689  0.45759111  0.37366402     0.06530
C673        C  0.25470954  0.39575398  0.51125057     0.42230
C674        C  0.18716039  0.05694104  0.42402729    -0.06790
Co675      Co  0.22689515  0.47346376  0.45070095     0.73820
N676        N  0.31879269  0.46133746  0.41799178    -0.46980
C677        C  0.19065556  0.00832337  0.60909051     0.42490
N678        N  0.16735417  0.44311375  0.47935602    -0.46970
Co679      Co  0.30054208  0.47882587  0.49646734     0.73890
C680        C  0.32637477  0.47570624  0.57908437    -0.07300
C681        C  0.26672871  0.09674285  0.50818081    -0.06860
N682        N  0.17113563  0.49034888  0.49678362    -0.26390
N683        N  0.33163418  0.06608033  0.51795476    -0.47150
H684        H  0.23960584  0.02404312  0.62705923     0.06500
C685        C  0.23265463  0.41071290  0.48697035    -0.07270
Cl686      Cl  0.24778922  0.00536563  0.49734183    -0.50270
C687        C  0.30363467  0.45429086  0.38659803     0.42260
H688        H  0.12713676  0.49314353  0.52785062     0.06470
N689        N  0.27992124  0.41433995  0.51628722    -0.46990
C690        C  0.29977613  0.20678111  0.38696204     0.42110
N691        N  0.29048985  0.24382905  0.42368990     0.01000
C692        C  0.28304998  0.23104912  0.60775445    -0.06880
H693        H  0.20814472  0.15468613  0.51903221     0.06490
C694        C  0.14737361  0.23426076  0.48951356    -0.07230
Co695      Co  0.30534489  0.22349480  0.49887283     0.74180
N696        N  0.24859271  0.18456755  0.51637594    -0.26410
Co697      Co  0.23380456  0.21909365  0.54577666     0.74070
C698        C  0.14214371  0.20213826  0.49919392     0.42210
N699        N  0.20609277  0.28959308  0.44714154     0.00610
N700        N  0.18861591  0.21756484  0.51868203     0.00720
N701        N  0.32707609  0.24104443  0.57512581    -0.47260
H702        H  0.31985315  0.17733667  0.43196234     0.06480
N703        N  0.27609466  0.18408918  0.49929603     0.01000
N704        N  0.21930549  0.25376867  0.57466769     0.00740
C705        C  0.19846695  0.27132194  0.62285795     0.42350
N706        N  0.23327231  0.28786554  0.42856613    -0.25870
C707        C  0.36261806  0.27184717  0.50745788    -0.06790
N708        N  0.28914705  0.23595809  0.38876918    -0.46970
N709        N  0.21674066  0.24998970  0.60942061    -0.47190
C710        C  0.36753274  0.30278267  0.49350209     0.42120
N711        N  0.30510232  0.22719020  0.55513367     0.00990
N712        N  0.26261889  0.31975376  0.48571245    -0.25890
N713        N  0.30257727  0.22190369  0.44352325    -0.26380
N714        N  0.23600684  0.31958783  0.50558439     0.00630
H715        H  0.29844473  0.35356024  0.47561089     0.06520
H716        H  0.17125067  0.30767884  0.58936187     0.06560
N717        N  0.27817653  0.22278592  0.57307638    -0.26430
N718        N  0.17695412  0.24162800  0.50208296    -0.26040
N719        N  0.32183510  0.28565909  0.47610240     0.01000
C720        C  0.24987512  0.14451948  0.48207823     0.42390
C721        C  0.23087650  0.30420463  0.39815337    -0.07290
N722        N  0.20388995  0.27705793  0.56175076    -0.26040
H723        H  0.13112288  0.24953222  0.47600815     0.06540
N724        N  0.27831040  0.15945012  0.47898247    -0.47260
H725        H  0.25087636  0.31066099  0.38120077     0.06530
C726        C  0.25663125  0.36327825  0.51396483     0.42230
C727        C  0.30953093  0.19835008  0.42282231    -0.06790
Co728      Co  0.27704982  0.28395233  0.45257184     0.73820
N729        N  0.18537580  0.30743103  0.43035825    -0.46980
C730        C  0.31451179  0.24475077  0.60863224     0.42490
N731        N  0.34115155  0.30934793  0.47433344    -0.46970
Co732      Co  0.20471384  0.28241989  0.50408195     0.73890
C733        C  0.18842141  0.28943365  0.59065176    -0.07300
C734        C  0.23112476  0.16072237  0.50779418    -0.06860
N735        N  0.33340129  0.26325661  0.49523586    -0.26390
N736        N  0.16856798  0.19421164  0.51796423    -0.47150
H737        H  0.26568173  0.23159609  0.62928924     0.06500
C738        C  0.27717776  0.34624385  0.48984087    -0.07270
Cl739      Cl  0.25472891  0.25240773  0.49966394    -0.50270
C740        C  0.19978647  0.31846107  0.40008445     0.42260
H741        H  0.37856306  0.25822347  0.52368887     0.06470
N742        N  0.23098715  0.34579081  0.52177355    -0.46990
C743        C  0.46340011  0.17781970  0.38618153     0.42110
N744        N  0.46487850  0.13878893  0.42271260     0.01000
C745        C  0.47361895  0.15141739  0.60542251    -0.06880
H746        H  0.04377470  0.22853086  0.51418925     0.06490
C747        C  0.10720976  0.15142399  0.48572494    -0.07230
Co748      Co  0.44795820  0.15884169  0.49776429     0.74180
N749        N  0.00384926  0.19806147  0.51374654    -0.26410
Co750      Co  0.02015317  0.16408304  0.54234470     0.74070
C751        C  0.11195668  0.18322381  0.49741485     0.42210
N752        N  0.04774541  0.09249152  0.44371824     0.00610
N753        N  0.06480493  0.16705938  0.51389992     0.00720
N754        N  0.42797654  0.14041454  0.57575861    -0.47260
H755        H  0.44002404  0.20680068  0.42938718     0.06480
N756        N  0.47551978  0.19851781  0.49890410     0.01000
N757        N  0.03728150  0.13071827  0.57157328     0.00740
C758        C  0.07534766  0.12776959  0.60913682     0.42350
N759        N  0.02021366  0.09369220  0.42609688    -0.25870
C760        C  0.39090759  0.11142890  0.50598450    -0.06790
N761        N  0.47067024  0.14766444  0.38875218    -0.46970
N762        N  0.04754260  0.14060195  0.60270846    -0.47190
C763        C  0.38572908  0.08051426  0.49255233     0.42120
N764        N  0.44904098  0.15429882  0.55422084     0.00990
N765        N  0.49275533  0.06317690  0.48547288    -0.25890
N766        N  0.45244981  0.16093983  0.44195727    -0.26380
N767        N  0.02000011  0.06422565  0.50417844     0.00630
H768        H  0.45734393  0.02855170  0.47774150     0.06520
H769        H  0.10327163  0.09507701  0.57178431     0.06560
N770        N  0.47660053  0.15928047  0.57061817    -0.26430
N771        N  0.07711914  0.14359769  0.49645416    -0.26040
N772        N  0.43219320  0.09660596  0.47556465     0.01000
C773        C  0.49986042  0.23853555  0.48101293     0.42390
C774        C  0.02122710  0.07509920  0.39736383    -0.07290
N775        N  0.05562130  0.11013283  0.55646790    -0.26040
H776        H  0.12450001  0.13630115  0.47355803     0.06540
N777        N  0.47155798  0.22354972  0.47993343    -0.47260
H778        H  0.00044625  0.06776822  0.38233685     0.06530
C779        C  0.00060364  0.02022195  0.51441639     0.42230
C780        C  0.45006952  0.18543272  0.42122870    -0.06790
Co781      Co  0.47730217  0.09826167  0.45159437     0.73820
N782        N  0.06713340  0.07247779  0.42834936    -0.46980
C783        C  0.44208364  0.13814660  0.60867593     0.42490
N784        N  0.41243735  0.07319515  0.47391699    -0.46970
Co785      Co  0.05072221  0.10214213  0.49981608     0.73890
C786        C  0.08127058  0.10661061  0.57878003    -0.07300
C787        C  0.02044609  0.22222394  0.50448805    -0.06860
N788        N  0.42043954  0.11932322  0.49402922    -0.26390
N789        N  0.08479682  0.19038453  0.51535950    -0.47150
H790        H  0.49271376  0.15029010  0.62490644     0.06500
C791        C  0.47888752  0.03647406  0.49085763    -0.07270
Cl792      Cl  0.49929594  0.13064102  0.49761216    -0.50270
C793        C  0.05160396  0.05965744  0.39990973     0.42260
H794        H  0.37490679  0.12559428  0.52159000     0.06470
N795        N  0.02608023  0.03835692  0.52067407    -0.46990
C796        C  0.05388037  0.33117544  0.38787719     0.42110
N797        N  0.04262951  0.36818182  0.42408348     0.01000
C798        C  0.03194363  0.35847565  0.60763013    -0.06880
H799        H  0.46041171  0.27936925  0.51927414     0.06490
C800        C  0.39973069  0.35499844  0.48478288    -0.07230
Co801      Co  0.05627338  0.34854655  0.49976268     0.74180
N802        N  0.50042896  0.30982575  0.51732388    -0.26410
Co803      Co  0.48437609  0.34503503  0.54553782     0.74070
C804        C  0.39492313  0.32403806  0.49868237     0.42210
N805        N  0.45697697  0.41285980  0.44315519     0.00610
N806        N  0.43998208  0.34167278  0.51793120     0.00720
N807        N  0.07789686  0.36393435  0.57646858    -0.47260
H808        H  0.07475616  0.30273209  0.43336973     0.06480
N809        N  0.02786033  0.30964506  0.50004964     0.01000
N810        N  0.46842515  0.38053558  0.57275524     0.00740
C811        C  0.43614177  0.39132911  0.61548046     0.42350
N812        N  0.48478062  0.41167103  0.42579575    -0.25870
C813        C  0.11077712  0.39729123  0.51117928    -0.06790
N814        N  0.04121145  0.35966259  0.38934429    -0.46970
N815        N  0.46163425  0.37540196  0.60658631    -0.47190
C816        C  0.11371785  0.42899419  0.50038557     0.42120
N817        N  0.05516188  0.35202628  0.55590180     0.00990
N818        N  0.01075422  0.44456827  0.48435820    -0.25890
N819        N  0.05548344  0.34682115  0.44425265    -0.26380
N820        N  0.48344183  0.44362553  0.50294200     0.00630
H821        H  0.04614176  0.47941424  0.47703750     0.06520
H822        H  0.40592193  0.42121067  0.57689420     0.06560
N823        N  0.02764584  0.34969370  0.57317419    -0.26430
N824        N  0.42836382  0.36402970  0.49815681    -0.26040
N825        N  0.07040104  0.41080966  0.47885878     0.01000
C826        C  0.00227350  0.27048934  0.48208395     0.42390
C827        C  0.48359941  0.42925646  0.39624647    -0.07290
N828        N  0.44980262  0.40042024  0.55714941    -0.26040
H829        H  0.38348592  0.36880906  0.46918216     0.06540
N830        N  0.03043572  0.28553735  0.47909722    -0.47260
H831        H  0.50435254  0.43654860  0.38100299     0.06530
C832        C  0.50264454  0.48751637  0.51373308     0.42230
C833        C  0.06412779  0.32349081  0.42379202    -0.06790
Co834      Co  0.02731757  0.40847907  0.45225936     0.73820
N835        N  0.43712767  0.43161990  0.42648164    -0.46980
C836        C  0.06474836  0.36881519  0.60939427     0.42490
N837        N  0.08828765  0.43530543  0.47974204    -0.46970
Co838      Co  0.45377504  0.40552136  0.49994400     0.73890
C839        C  0.42731385  0.40816595  0.58220110    -0.07300
C840        C  0.48339273  0.28581188  0.50846362    -0.06860
N841        N  0.08252823  0.38828900  0.49726279    -0.26390
N842        N  0.42063290  0.31797675  0.51922041    -0.47150
H843        H  0.01371058  0.36113337  0.62806205     0.06500
C844        C  0.02438606  0.47143748  0.48973528    -0.07270
Cl845      Cl  0.50491383  0.37695005  0.49855679    -0.50270
C846        C  0.45270462  0.44398784  0.39774455     0.42260
H847        H  0.12677885  0.38370914  0.52739682     0.06470
N848        N  0.47722287  0.46932525  0.51978850    -0.46990
C849        C  0.44674018  0.69148911  0.35525222     0.42110
N850        N  0.40770572  0.68994365  0.31841943     0.01000
C851        C  0.39468090  0.71497145  0.13503189    -0.06880
H852        H  0.32971732  0.77829776  0.21330656     0.06490
C853        C  0.26313255  0.70337427  0.25513150    -0.07230
Co854      Co  0.42286403  0.70598522  0.24247670     0.74180
N855        N  0.36661532  0.74508747  0.22165296    -0.26410
Co856      Co  0.34805404  0.70828724  0.19507870     0.74070
C857        C  0.25811158  0.73362465  0.24062486     0.42210
N858        N  0.31896037  0.66614017  0.30547931     0.00610
N859        N  0.30314366  0.71536150  0.22077624     0.00720
N860        N  0.44182589  0.71883565  0.16424992    -0.47260
H861        H  0.47942606  0.71237433  0.31115614     0.06480
N862        N  0.39369698  0.74479484  0.24067252     0.01000
N863        N  0.33172873  0.66723835  0.17276632     0.00740
C864        C  0.32286642  0.62855993  0.13918693     0.42350
N865        N  0.34663181  0.66365587  0.32246196    -0.25870
C866        C  0.47670263  0.65657631  0.23610232    -0.06790
N867        N  0.41662266  0.68350331  0.35133334    -0.46970
N868        N  0.33434560  0.65714190  0.13897959    -0.47190
C869        C  0.48229373  0.62737749  0.25348527     0.42120
N870        N  0.41965214  0.70651060  0.18547841     0.00990
N871        N  0.37062056  0.61579125  0.27642271    -0.25890
N872        N  0.42889606  0.70509167  0.29968102    -0.26380
N873        N  0.34305407  0.61497223  0.25941825     0.00630
H874        H  0.40604570  0.58297286  0.29137775     0.06520
H875        H  0.30228422  0.60152230  0.18675132     0.06560
N876        N  0.39154461  0.70514309  0.16894605    -0.26430
N877        N  0.29152327  0.69420594  0.24172244    -0.26040
N878        N  0.43471459  0.64408832  0.26786527     0.01000
C879        C  0.37281115  0.78777483  0.24920551     0.42390
C880        C  0.34376566  0.67656966  0.35497619    -0.07290
N881        N  0.31919317  0.64696375  0.19481321    -0.26040
H882        H  0.24814759  0.69065816  0.27348407     0.06540
N883        N  0.39836565  0.77053914  0.25781874    -0.47260
H884        H  0.36255271  0.67979226  0.37451400     0.06530
C885        C  0.36102335  0.57025038  0.26014061     0.42230
C886        C  0.45573059  0.70640840  0.32068759    -0.06790
Co887      Co  0.38969841  0.65300853  0.29607733     0.73820
N888        N  0.29754448  0.68219884  0.32433422    -0.46980
C889        C  0.42761632  0.72465165  0.13213871     0.42490
N890        N  0.45536604  0.62149175  0.27321604    -0.46970
Co891      Co  0.31725937  0.65484579  0.25052338     0.73890
C892        C  0.31214176  0.62213109  0.17586700    -0.07300
C893        C  0.35225193  0.77160608  0.22518285    -0.06860
N894        N  0.44684809  0.66483762  0.24603912    -0.26390
N895        N  0.28393146  0.73947772  0.21926815    -0.47150
H896        H  0.37481973  0.72106586  0.11776867     0.06500
C897        C  0.38344326  0.58865309  0.27881723    -0.07270
Cl898      Cl  0.36990234  0.68028945  0.24510063    -0.50270
C899        C  0.31221867  0.69000654  0.35554796     0.42260
H900        H  0.49348005  0.67050334  0.22130062     0.06470
N901        N  0.33635117  0.58737861  0.24824175    -0.46990
C902        C  0.26349720  0.48309863  0.24133755     0.42110
N903        N  0.30661570  0.96152002  0.22154123     0.01000
C904        C  0.38990520  0.83642717  0.27947154    -0.06880
H905        H  0.36346990  0.91945050  0.38112841     0.06490
C906        C  0.44470643  0.97057906  0.33208693    -0.07230
Co907      Co  0.32183116  0.90174077  0.25330476     0.74180
N908        N  0.34954768  0.90785961  0.32640301    -0.26410
Co909      Co  0.39302245  0.90150708  0.29900758     0.74070
C910        C  0.43503342  0.95551856  0.36660560     0.42210
N911        N  0.39018788  0.49722845  0.24633788     0.00610
N912        N  0.40753672  0.93900502  0.32246393     0.00720
N913        N  0.34166009  0.83479487  0.25147838    -0.47260
H914        H  0.25128108  0.94125180  0.27601633     0.06480
N915        N  0.32227306  0.91106771  0.30881373     0.01000
N916        N  0.43740866  0.89732572  0.26956970     0.00740
C917        C  0.48209550  0.88098944  0.24670629     0.42350
N918        N  0.36470804  0.49592709  0.22486459    -0.25870
C919        C  0.32617056  0.86749097  0.18016507    -0.06790
N920        N  0.28869231  0.48618594  0.21898701    -0.46970
N921        N  0.45702908  0.87358387  0.26842951    -0.47190
C922        C  0.33871911  0.87261975  0.14377932     0.42120
N923        N  0.34841586  0.86238362  0.26234734     0.00990
N924        N  0.39465678  0.96022931  0.17282237    -0.25890
N925        N  0.29484369  0.94136375  0.24374475    -0.26380
N926        N  0.42099436  0.96475915  0.19188094     0.00630
H927        H  0.37483509  0.98289406  0.12665224     0.06520
H928        H  0.49091971  0.92605471  0.21728380     0.06560
N929        N  0.37652772  0.86354623  0.27804768    -0.26430
N930        N  0.42491032  0.95931216  0.30615484    -0.26040
N931        N  0.34027979  0.91410677  0.17616049     0.01000
C932        C  0.31396036  0.93074410  0.36111746     0.42390
C933        C  0.34939819  0.52220769  0.22530423    -0.07290
N934        N  0.44820983  0.92010455  0.24977132    -0.26040
H935        H  0.46480627  0.98542320  0.32719595     0.06540
N936        N  0.30039895  0.92549666  0.32845160    -0.47260
H937        H  0.32822318  0.52817210  0.21017905     0.06530
C938        C  0.42396854  0.99608695  0.14649729     0.42230
C939        C  0.26680220  0.95248993  0.25687366    -0.06790
Co940      Co  0.35129626  0.95728112  0.19783010     0.73820
N941        N  0.39298362  0.52374065  0.26206711    -0.46980
C942        C  0.36690694  0.81776635  0.26164412     0.42490
N943        N  0.34685265  0.90252395  0.14376142    -0.46970
Co944      Co  0.42190689  0.96065148  0.24862300     0.73890
C945        C  0.47625059  0.91195342  0.23446740    -0.07300
C946        C  0.34553737  0.91773221  0.36039397    -0.06860
N947        N  0.32776850  0.89376676  0.19795003    -0.26390
N948        N  0.41209782  0.93700685  0.35715405    -0.47150
H949        H  0.41277112  0.83081823  0.29143329     0.06500
C950        C  0.39559725  0.97749195  0.14284740    -0.07270
Cl951      Cl  0.37224827  0.93022381  0.24935810    -0.50270
C952        C  0.36758593  0.53981168  0.25025840     0.42260
H953        H  0.31719608  0.84659918  0.19114740     0.06470
N954        N  0.43903205  0.98570671  0.17648670    -0.46990
C955        C  0.01393497  0.61124165  0.25684803     0.42110
N956        N  0.05038997  0.57643832  0.25505694     0.01000
C957        C  0.20530188  0.56845637  0.32109589    -0.06880
H958        H  0.17813583  0.66092074  0.21484389     0.06490
C959        C  0.15361468  0.58025302  0.13892629    -0.07230
Co960      Co  0.11193423  0.59400729  0.29516675     0.74180
N961        N  0.15547039  0.62731340  0.24891576    -0.26410
Co962      Co  0.18079200  0.58588542  0.24487479     0.74070
C963        C  0.16552976  0.61191540  0.13985115     0.42210
N964        N  0.09995450  0.53213148  0.17687635     0.00610
N965        N  0.17388195  0.58933175  0.19075667     0.00720
N966        N  0.16110953  0.57983030  0.35318745    -0.47260
H967        H  0.04782109  0.64346784  0.28711567     0.06480
N968        N  0.12763030  0.62777731  0.26550481     0.01000
N969        N  0.20447269  0.54329293  0.23863342     0.00740
C970        C  0.23493774  0.50342200  0.24014017     0.42350
N971        N  0.07314233  0.52988535  0.19595988    -0.25870
C972        C  0.09586512  0.56218690  0.35948979    -0.06790
N973        N  0.02002960  0.58248701  0.24642343    -0.46970
N974        N  0.23315069  0.53322897  0.24950769    -0.47190
C975        C  0.06908310  0.54491464  0.37011712     0.42120
N976        N  0.15745874  0.58785613  0.31911158     0.00990
N977        N  0.10128962  0.99564972  0.25305192    -0.25890
N978        N  0.06476424  0.59905611  0.27180390    -0.26380
N979        N  0.12690596  0.99326297  0.23191223     0.00630
H980        H  0.07774761  0.96452893  0.28915506     0.06520
H981        H  0.19884398  0.97585567  0.20789328     0.06560
N982        N  0.18322022  0.58171391  0.29981981    -0.26430
N983        N  0.15918259  0.56838951  0.17200227    -0.26040
N984        N  0.07657450  0.53956282  0.31220093     0.01000
C985        C  0.12760614  0.66942475  0.23808754     0.42390
C986        C  0.05134674  0.51651279  0.17401153    -0.07290
N987        N  0.18857771  0.52219796  0.22152630    -0.26040
H988        H  0.14082033  0.56912477  0.11734309     0.06540
N989        N  0.11056902  0.65213367  0.26008886    -0.47260
H990        H  0.02835454  0.50787102  0.18266687     0.06530
C991        C  0.12404926  0.95098868  0.25925934     0.42230
C992        C  0.04366673  0.62220491  0.27363214    -0.06790
Co993      Co  0.07420598  0.53484871  0.25392357     0.73820
N994        N  0.09780242  0.52153942  0.14369393    -0.46980
C995        C  0.19011895  0.56705383  0.35647069     0.42490
N996        N  0.05701773  0.53166592  0.33931965    -0.46970
Co997      Co  0.14376974  0.52890573  0.19982928     0.73890
C998        C  0.20577604  0.99665214  0.22086935    -0.07300
C999        C  0.15844212  0.65406073  0.23204492    -0.06860
N1000       N  0.09713308  0.55938625  0.32416900    -0.26390
N1001       N  0.17762295  0.61479755  0.17311796    -0.47150
H1002       H  0.22781370  0.55882244  0.31238715     0.06500
C1003       C  0.09717913  0.96967298  0.27076125    -0.07270
Cl1004     Cl  0.12746819  0.56084763  0.24829506    -0.50270
C1005       C  0.06832982  0.51087646  0.13933734     0.42260
H1006       H  0.10554548  0.58137963  0.37384293     0.06470
N1007       N  0.14085766  0.96669002  0.23465424    -0.46990
C1008       C  0.23036677  0.75402732  0.24923687     0.42110
N1009       N  0.19792218  0.79205443  0.25309448     0.01000
C1010       C  0.04556161  0.80701325  0.32169695    -0.06880
H1011       H  0.07174818  0.70980814  0.21585807     0.06490
C1012       C  0.09894955  0.78818268  0.13910562    -0.07230
Co1013     Co  0.13748511  0.77681222  0.29659267     0.74180
N1014       N  0.09376067  0.74273177  0.25129054    -0.26410
Co1015     Co  0.06916399  0.78379682  0.24572934     0.74070
C1016       C  0.08887394  0.75595835  0.14054435     0.42210
N1017       N  0.15031998  0.83897033  0.17607319     0.00610
N1018       N  0.07739939  0.77934814  0.19080233     0.00720
N1019       N  0.08972180  0.79710222  0.35385285    -0.47260
H1020       H  0.19731039  0.72467571  0.28416480     0.06480
N1021       N  0.12105303  0.74205038  0.26860914     0.01000
N1022       N  0.04470899  0.82471398  0.23800066     0.00740
C1023       C  0.01068369  0.86166067  0.23844496     0.42350
N1024       N  0.17697610  0.83952527  0.19538954    -0.25870
C1025       C  0.15595573  0.80976891  0.35978184    -0.06790
N1026       N  0.22609825  0.78327381  0.23930722    -0.46970
N1027       N  0.01546853  0.83277179  0.24917129    -0.47190
C1028       C  0.18133528  0.82933942  0.36901799     0.42120
N1029       N  0.09236925  0.78550187  0.32099522     0.00990
N1030       N  0.14799234  0.87418800  0.25192699    -0.25890
N1031       N  0.18342262  0.77042771  0.27159051    -0.26380
N1032       N  0.12190578  0.87642318  0.23153048     0.00630
H1033       H  0.17149159  0.90530261  0.28798240     0.06520
H1034       H  0.04532475  0.89179571  0.20629278     0.06560
N1035       N  0.06658258  0.79077923  0.30143148    -0.26430
N1036       N  0.09174484  0.80047219  0.17175623    -0.26040
N1037       N  0.17361246  0.83138776  0.31097924     0.01000
C1038       C  0.12176914  0.70106386  0.23938550     0.42390
C1039       C  0.20017164  0.85166984  0.17419706    -0.07290
N1040       N  0.05933281  0.84636330  0.22037470    -0.26040
H1041       H  0.11222650  0.79934837  0.11783790     0.06540
N1042       N  0.13816304  0.71769502  0.26273135    -0.47260
H1043       H  0.22357158  0.85868751  0.18347347     0.06530
C1044       C  0.12465618  0.91854733  0.25925497     0.42230
C1045       C  0.20238687  0.74587489  0.27097490    -0.06790
Co1046     Co  0.17535493  0.83477589  0.25271977     0.73820
N1047       N  0.15392042  0.85004000  0.14319279    -0.46980
C1048       C  0.06150780  0.81166193  0.35634895     0.42490
N1049       N  0.19249212  0.84179575  0.33733763    -0.46970
Co1050     Co  0.10557180  0.84081592  0.19909086     0.73890
C1051       C  0.03977593  0.87052468  0.21907514    -0.07300
C1052       C  0.09103427  0.71632123  0.23367493    -0.06860
N1053       N  0.15410691  0.81123348  0.32433920    -0.26390
N1054       N  0.07551342  0.75345103  0.17350126    -0.47150
H1055       H  0.02347606  0.81698048  0.31259263     0.06500
C1056       C  0.15197469  0.90010126  0.26981474    -0.07270
Cl1057     Cl  0.12208632  0.80920082  0.24831779    -0.50270
C1058       C  0.18440470  0.85875832  0.13951942     0.42260
H1059       H  0.14652832  0.79131215  0.37571841     0.06470
N1060       N  0.10760260  0.90279421  0.23493756    -0.46990
C1061       C  0.31583873  0.60978812  0.10724142     0.42110
N1062       N  0.28421880  0.59018517  0.06779275     0.01000
C1063       C  0.27949543  0.60443869  0.88720687    -0.06880
H1064       H  0.33089736  0.70331843  0.96362320     0.06490
C1065       C  0.22611523  0.71060646  0.02511314    -0.07230
Co1066     Co  0.30874539  0.59334826  0.99298384     0.74180
N1067       N  0.31818021  0.65704130  0.97397103    -0.26410
Co1068     Co  0.27357136  0.65411691  0.95154866     0.74070
C1069       C  0.25313210  0.72993568  0.01522297     0.42210
N1070       N  0.20236466  0.63713691  0.05927467     0.00610
N1071       N  0.25762707  0.68789469  0.98725840     0.00720
N1072       N  0.30273315  0.56764979  0.91845185    -0.47260
H1073       H  0.35473356  0.61849107  0.06438242     0.06480
N1074       N  0.33304693  0.63442223  0.98924303     0.01000
N1075       N  0.23004047  0.65748341  0.92779173     0.00740
C1076       C  0.20150638  0.69347687  0.90495860     0.42350
N1077       N  0.22270403  0.61740319  0.07225668    -0.25870
C1078       C  0.28725904  0.52661503  0.97565354    -0.06790
N1079       N  0.28658394  0.59792710  0.10222372    -0.46970
N1080       N  0.22880025  0.67776484  0.90153820    -0.47190
C1081       C  0.25655406  0.51099646  0.98037477     0.42120
N1082       N  0.30104890  0.59257683  0.93780128     0.00990
N1083       N  0.19502904  0.57984807  0.01627891    -0.25890
N1084       N  0.31055380  0.59604761  0.04932614    -0.26380
N1085       N  0.18068310  0.60226558  0.99900658     0.00630
H1086       H  0.18059905  0.53437503  0.02936547     0.06520
H1087       H  0.16291861  0.68662282  0.94822924     0.06560
N1088       N  0.28682185  0.61492859  0.92068004    -0.26430
N1089       N  0.23116717  0.68480267  0.00707574    -0.26040
N1090       N  0.25654564  0.55117764  0.01131081     0.01000
C1091       C  0.36560310  0.67183410  0.99280058     0.42390
C1092       C  0.21567425  0.61027070  0.10582904    -0.07290
N1093       N  0.20360811  0.65681436  0.94765460    -0.26040
H1094       H  0.20553413  0.71561479  0.04191952     0.06540
N1095       N  0.36237154  0.64198782  0.00004885    -0.47260
H1096       H  0.22428374  0.59011109  0.11913968     0.06530
C1097       C  0.14724228  0.56478322  0.99662243     0.42230
C1098       C  0.33201345  0.60867276  0.07203201    -0.06790
Co1099     Co  0.24003670  0.58442980  0.04194378     0.73820
N1100       N  0.17801196  0.64110744  0.08221942    -0.46980
C1101       C  0.28930820  0.57201254  0.88590446     0.42490
N1102       N  0.23963396  0.52709954  0.00396340    -0.46970
Co1103     Co  0.20342251  0.64534695  0.00299831     0.73890
C1104       C  0.18402092  0.67827379  0.93443700    -0.07300
C1105       C  0.33669228  0.68155894  0.97503096    -0.06860
N1106       N  0.28412618  0.55236216  0.99456699    -0.26390
N1107       N  0.27106723  0.71457788  0.99119419    -0.47150
H1108       H  0.26628248  0.61687531  0.86699621     0.06500
C1109       C  0.17573427  0.55562535  0.01617633    -0.07270
Cl1110     Cl  0.25600709  0.61960468  0.99690518    -0.50270
C1111       C  0.18589934  0.62486326  0.11207280     0.42260
H1112       H  0.30694756  0.52077102  0.95787254     0.06470
N1113       N  0.15166800  0.59427034  0.98715529    -0.46990
C1114       C  0.19416766  0.87900440  0.10961489     0.42110
N1115       N  0.22535604  0.89983728  0.07040558     0.01000
C1116       C  0.21638504  0.88691519  0.88727346    -0.06880
H1117       H  0.17137075  0.78991473  0.96249171     0.06490
C1118       C  0.28051264  0.78163623  0.02321812    -0.07230
Co1119     Co  0.19732609  0.89822452  0.99653701     0.74180
N1120       N  0.18642564  0.83489515  0.97649085    -0.26410
Co1121     Co  0.23089226  0.83836223  0.95188436     0.74070
C1122       C  0.25293966  0.76261622  0.01493512     0.42210
N1123       N  0.30565173  0.85289541  0.05859904     0.00610
N1124       N  0.24851020  0.80425092  0.98603925     0.00720
N1125       N  0.19106786  0.92193216  0.92110783    -0.47260
H1126       H  0.15349989  0.87501564  0.06840792     0.06480
N1127       N  0.17269071  0.85710809  0.99417856     0.01000
N1128       N  0.27417503  0.83673760  0.92587304     0.00740
C1129       C  0.30537134  0.80800205  0.89492350     0.42350
N1130       N  0.28646009  0.87348004  0.07181812    -0.25870
C1131       C  0.22085557  0.96380549  0.97615200    -0.06790
N1132       N  0.22387478  0.88974794  0.10421071    -0.46970
N1133       N  0.27598408  0.82012149  0.89598207    -0.47190
C1134       C  0.25175238  0.97924220  0.98033741     0.42120
N1135       N  0.19969172  0.89854227  0.94074908     0.00990
N1136       N  0.31340847  0.91145469  0.01528668    -0.25890
N1137       N  0.19821755  0.89588007  0.05287377    -0.26380
N1138       N  0.32751675  0.88871467  0.99830749     0.00630
H1139       H  0.32948372  0.95616741  0.02968560     0.06520
H1140       H  0.34581860  0.81362604  0.93636000     0.06560
N1141       N  0.21444619  0.87714033  0.92209531    -0.26430
N1142       N  0.27551438  0.80715335  0.00475227    -0.26040
N1143       N  0.25113948  0.93979115  0.01257815     0.01000
C1144       C  0.13828382  0.82091574  0.99530123     0.42390
C1145       C  0.29167504  0.87822109  0.10635133    -0.07290
N1146       N  0.30142577  0.83760584  0.94435811    -0.26040
H1147       H  0.30116017  0.77678818  0.03986013     0.06540
N1148       N  0.14341386  0.84986280  0.00578347    -0.47260
H1149       H  0.28316350  0.89780193  0.12101669     0.06530
C1150       C  0.36277597  0.92494907  0.99741854     0.42230
C1151       C  0.17679603  0.88357677  0.07575594    -0.06790
Co1152     Co  0.26862515  0.90654352  0.04252662     0.73820
N1153       N  0.32779197  0.84569393  0.08326740    -0.46980
C1154       C  0.20105147  0.91717840  0.88718487     0.42490
N1155       N  0.26848105  0.96336874  0.00415231    -0.46970
Co1156     Co  0.30352650  0.84626825  0.00108408     0.73890
C1157       C  0.32276531  0.82067234  0.92602999    -0.07300
C1158       C  0.16665430  0.81115890  0.97581417    -0.06860
N1159       N  0.22338418  0.93862015  0.99615969    -0.26390
N1160       N  0.23467387  0.77785457  0.99118600    -0.47150
H1161       H  0.22748706  0.87483719  0.86513348     0.06500
C1162       C  0.33362022  0.93512284  0.01563658    -0.07270
Cl1163     Cl  0.25039594  0.87231032  0.99754617    -0.50270
C1164       C  0.31904995  0.86060904  0.11429034     0.42260
H1165       H  0.20132697  0.96950826  0.95829767     0.06470
N1166       N  0.35754597  0.89547699  0.98851534    -0.46990
C1167       C  0.06156820  0.98941937  0.10972089     0.42110
N1168       N  0.03217938  0.96639965  0.07084692     0.01000
C1169       C  0.03222280  0.97338262  0.88974337    -0.06880
H1170       H  0.08409750  0.57514770  0.95665660     0.06490
C1171       C  0.47829717  0.58558789  0.01945860    -0.07230
Co1172     Co  0.05917557  0.96708331  0.99669861     0.74180
N1173       N  0.06995869  0.53015554  0.97244294    -0.26410
Co1174     Co  0.02475501  0.52509862  0.95003592     0.74070
C1175       C  0.50640126  0.60354309  0.00917593     0.42210
N1176       N  0.45303300  0.51488322  0.05967858     0.00610
N1177       N  0.00834551  0.56082988  0.98214555     0.00720
N1178       N  0.05630662  0.93825845  0.92300070    -0.47260
H1179       H  0.10199167  0.99591441  0.06801060     0.06480
N1180       N  0.08406980  0.50868881  0.99091571     0.01000
N1181       N  0.48104867  0.52389219  0.92583416     0.00740
C1182       C  0.44822490  0.54416379  0.88881692     0.42350
N1183       N  0.47203456  0.99405613  0.07244790    -0.25870
C1184       C  0.03702256  0.89986018  0.98194645    -0.06790
N1185       N  0.03312274  0.97643921  0.10458085    -0.46970
N1186       N  0.47855029  0.53532765  0.89299553    -0.47190
C1187       C  0.00596075  0.88471784  0.98615485     0.42120
N1188       N  0.05349042  0.96373691  0.94121786     0.00990
N1189       N  0.44341906  0.95472292  0.01777382    -0.25890
N1190       N  0.05899332  0.97176120  0.05299657    -0.26380
N1191       N  0.42930534  0.97745636  0.00101308     0.00630
H1192       H  0.42762718  0.90950579  0.03049104     0.06520
H1193       H  0.40789751  0.54403880  0.93161439     0.06560
N1194       N  0.03906685  0.98506954  0.92262613    -0.26430
N1195       N  0.48187818  0.55917387  0.00212095    -0.26040
N1196       N  0.00555737  0.92575522  0.01526702     0.01000
C1197       C  0.11806969  0.54583489  0.99024588     0.42390
C1198       C  0.46858305  0.49068748  0.10744058    -0.07290
N1199       N  0.45392102  0.52458510  0.94448199    -0.26040
H1200       H  0.45849571  0.59157181  0.03699024     0.06540
N1201       N  0.11321329  0.51701991  0.00197174    -0.47260
H1202       H  0.47682445  0.97102002  0.12205598     0.06530
C1203       C  0.39461520  0.94088419  0.99822213     0.42230
C1204       C  0.07937007  0.98585743  0.07562813    -0.06790
Co1205     Co  0.48858465  0.95980454  0.04400811     0.73820
N1206       N  0.43247990  0.52334230  0.08566528    -0.46980
C1207       C  0.04303214  0.94140637  0.89009159     0.42490
N1208       N  0.98854202  0.90165387  0.00835006    -0.46970
Co1209     Co  0.45338226  0.51969427  0.00170314     0.73890
C1210       C  0.43145708  0.53687575  0.92284446    -0.07300
C1211       C  0.08938552  0.55428504  0.97052388    -0.06860
N1212       N  0.03373133  0.92621918  0.99959574    -0.26390
N1213       N  0.02323861  0.58691116  0.98543450    -0.47150
H1214       H  0.01914371  0.48492004  0.86867007     0.06500
C1215       C  0.42341741  0.93084222  0.01722563    -0.07270
Cl1216     Cl  0.00634405  0.99311535  0.99799722    -0.50270
C1217       C  0.44259550  0.50935859  0.11683563     0.42260
H1218       H  0.05712153  0.89322865  0.96519645     0.06470
N1219       N  0.39976012  0.97045444  0.99001845    -0.46990
C1220       C  0.43876471  0.74680021  0.10534466     0.42110
N1221       N  0.47213814  0.76906456  0.07012460     0.01000
C1222       C  0.47135382  0.76284910  0.88665804    -0.06880
H1223       H  0.43058057  0.66039084  0.96082199     0.06490
C1224       C  0.03519011  0.65533919  0.01838290    -0.07230
Co1225     Co  0.44785890  0.77047068  0.99498096     0.74180
N1226       N  0.44154825  0.70685015  0.97288000    -0.26410
Co1227     Co  0.48569827  0.71374093  0.94908592     0.74070
C1228       C  0.00802176  0.63627360  0.00808918     0.42210
N1229       N  0.05687823  0.72699581  0.05828262     0.00610
N1230       N  0.00418869  0.67865572  0.98080164     0.00720
N1231       N  0.44446742  0.79665792  0.92071361    -0.47260
H1232       H  0.40005413  0.74588571  0.06178643     0.06480
N1233       N  0.42587608  0.72829910  0.98983043     0.01000
N1234       N  0.02909389  0.71753172  0.92464658     0.00740
C1235       C  0.06244876  0.69689914  0.88837950     0.42350
N1236       N  0.03371679  0.74306380  0.07262732    -0.25870
C1237       C  0.47037614  0.83730410  0.97950209    -0.06790
N1238       N  0.46892233  0.75721941  0.10286939    -0.46970
N1239       N  0.03208800  0.70575485  0.89205331    -0.47190
C1240       C  0.50056249  0.85304171  0.98688574     0.42120
N1241       N  0.45252995  0.77282604  0.93975122     0.00990
N1242       N  0.06162541  0.78605973  0.02078802    -0.25890
N1243       N  0.44591332  0.76633950  0.05069963    -0.26380
N1244       N  0.07629146  0.76524165  0.00112587     0.00630
H1245       H  0.07564959  0.83096255  0.03738897     0.06520
H1246       H  0.10225900  0.69777173  0.93146471     0.06560
N1247       N  0.46822167  0.75226023  0.92092327    -0.26430
N1248       N  0.03036478  0.68147378  0.00087416    -0.26040
N1249       N  0.49882380  0.81279043  0.01750550     0.01000
C1250       C  0.39539824  0.68929896  0.99338231     0.42390
C1251       C  0.03939370  0.74927386  0.10679788    -0.07290
N1252       N  0.05603235  0.71743060  0.94345035    -0.26040
H1253       H  0.05496481  0.65041336  0.03630554     0.06540
N1254       N  0.39740390  0.71904333  0.00151888    -0.47260
H1255       H  0.02812896  0.76789236  0.12093168     0.06530
C1256       C  0.10905344  0.80267866  0.00138209     0.42230
C1257       C  0.42311702  0.75350345  0.07114540    -0.06790
Co1258     Co  0.01621273  0.77807971  0.04558806     0.73820
N1259       N  0.08196381  0.72656159  0.08075581    -0.46980
C1260       C  0.45589741  0.79286324  0.88718394     0.42490
N1261       N  0.01598639  0.83701964  0.01161874    -0.46970
Co1262     Co  0.05591111  0.72228154  0.00062069     0.73890
C1263       C  0.07883049  0.70484513  0.92229637    -0.07300
C1264       C  0.42421532  0.68147187  0.97361521    -0.06860
N1265       N  0.47231585  0.81155955  0.99857003    -0.26390
N1266       N  0.99056850  0.65198948  0.98418782    -0.47150
H1267       H  0.48370098  0.75160537  0.86471507     0.06500
C1268       C  0.08065507  0.81052096  0.02244665    -0.07270
Cl1269     Cl  0.00162815  0.74615911  0.99724635    -0.50270
C1270       C  0.07149073  0.73983476  0.11201967     0.42260
H1271       H  0.45204690  0.84309583  0.96012613     0.06470
N1272       N  0.10491241  0.77405665  0.98944524    -0.46990
C1273       C  0.30688364  0.55776967  0.85601025     0.42110
N1274       N  0.34587152  0.56123478  0.81903320     0.01000
C1275       C  0.36429477  0.52037013  0.64056104    -0.06880
H1276       H  0.42822145  0.96958805  0.71770530     0.06490
C1277       C  0.49217862  0.54588546  0.75783486    -0.07230
Co1278     Co  0.33341053  0.54121359  0.74399696     0.74180
N1279       N  0.39092315  0.00246761  0.72601888    -0.26410
Co1280     Co  0.40822975  0.53901981  0.69749447     0.74070
C1281       C  0.49768928  0.01614183  0.74141723     0.42210
N1282       N  0.43373095  0.58610652  0.80822549     0.00610
N1283       N  0.45249122  0.53430526  0.72320779     0.00720
N1284       N  0.31749247  0.51867897  0.67040254    -0.47260
H1285       H  0.27609696  0.03372471  0.81258584     0.06480
N1286       N  0.36370372  0.00260261  0.74501434     0.01000
N1287       N  0.42351195  0.58038303  0.67381827     0.00740
C1288       C  0.43264551  0.61920460  0.64004644     0.42350
N1289       N  0.40564465  0.58946601  0.82423836    -0.25870
C1290       C  0.27970112  0.59233999  0.73239898    -0.06790
N1291       N  0.33623079  0.56784758  0.85165340    -0.46970
N1292       N  0.42158297  0.59032559  0.63979024    -0.47190
C1293       C  0.27505448  0.62309657  0.74696573     0.42120
N1294       N  0.33766574  0.53667130  0.68753045     0.00990
N1295       N  0.38299670  0.63430681  0.77476353    -0.25890
N1296       N  0.32593684  0.54442349  0.80075616    -0.26380
N1297       N  0.41081748  0.63475589  0.75819846     0.00630
H1298       H  0.34660958  0.66713173  0.78667695     0.06520
H1299       H  0.45237448  0.64631300  0.68770631     0.06560
N1300       N  0.36566460  0.53758475  0.67054043    -0.26430
N1301       N  0.46353686  0.55516205  0.74497268    -0.26040
N1302       N  0.32069577  0.60473551  0.76510121     0.01000
C1303       C  0.38530943  0.95974062  0.75398293     0.42390
C1304       C  0.40737509  0.57909544  0.85815420    -0.07290
N1305       N  0.43569666  0.60089919  0.69585402    -0.26040
H1306       H  0.50735340  0.55844033  0.77603809     0.06540
N1307       N  0.35930367  0.97677311  0.76225443    -0.47260
H1308       H  0.38795882  0.57700504  0.87720860     0.06530
C1309       C  0.39171206  0.67896028  0.75498221     0.42230
C1310       C  0.29915015  0.54174879  0.82180101    -0.06790
Co1311     Co  0.36398625  0.59763717  0.79551655     0.73820
N1312       N  0.45430949  0.57140555  0.82928125    -0.46980
C1313       C  0.33305598  0.50642077  0.64181457     0.42490
N1314       N  0.30128512  0.62854507  0.76748198    -0.46970
Co1315     Co  0.43706284  0.59476999  0.75212401     0.73890
C1316       C  0.44268311  0.62565194  0.67684759    -0.07300
C1317       C  0.40573468  0.97618579  0.72992690    -0.06860
N1318       N  0.30873049  0.58309924  0.74439651    -0.26390
N1319       N  0.47204682  0.01072999  0.72022966    -0.47150
H1320       H  0.38495000  0.51262052  0.62545253     0.06500
C1321       C  0.36959875  0.66124859  0.77504814    -0.07270
Cl1322     Cl  0.38544959  0.56828962  0.74675450    -0.50270
C1323       C  0.43882332  0.56621800  0.86105632     0.42260
H1324       H  0.26296894  0.57863102  0.71734062     0.06470
N1325       N  0.41701888  0.66178465  0.74484834    -0.46990
C1326       C  0.32051611  0.79313576  0.86348822     0.42110
N1327       N  0.35190173  0.80426229  0.81989249     0.01000
C1328       C  0.35649371  0.78198773  0.63540191    -0.06880
H1329       H  0.42402126  0.71973675  0.70259999     0.06490
C1330       C  0.48749099  0.79154962  0.75477435    -0.07230
Co1331     Co  0.33265561  0.78899278  0.74475108     0.74180
N1332       N  0.38799889  0.75248815  0.71760371    -0.26410
Co1333     Co  0.40354796  0.79172464  0.69360393     0.74070
C1334       C  0.48944637  0.76067560  0.74007651     0.42210
N1335       N  0.43625245  0.83276719  0.80637225     0.00610
N1336       N  0.44836759  0.78447418  0.71779718     0.00720
N1337       N  0.31147761  0.77379793  0.66746340    -0.47260
H1338       H  0.28475635  0.77152877  0.82279730     0.06480
N1339       N  0.36243029  0.75140745  0.73906946     0.01000
N1340       N  0.41649419  0.83514265  0.67453836     0.00740
C1341       C  0.41781365  0.87797519  0.64505656     0.42350
N1342       N  0.40943979  0.83642389  0.82475421    -0.25870
C1343       C  0.28031429  0.83854421  0.73631814    -0.06790
N1344       N  0.34798760  0.80562793  0.85485945    -0.46970
N1345       N  0.40943127  0.84822768  0.64320120    -0.47190
C1346       C  0.27529299  0.86842427  0.75165266     0.42120
N1347       N  0.33257068  0.78925774  0.68710088     0.00990
N1348       N  0.38173531  0.88277510  0.78009206    -0.25890
N1349       N  0.33053461  0.78812878  0.80286293    -0.26380
N1350       N  0.40960040  0.88419711  0.76358849     0.00630
H1351       H  0.34576841  0.91531284  0.79556658     0.06520
H1352       H  0.44078573  0.90161608  0.69317721     0.06560
N1353       N  0.35957789  0.79329847  0.66886821    -0.26430
N1354       N  0.46074876  0.80405767  0.74034678    -0.26040
N1355       N  0.32003561  0.85034405  0.77177853     0.01000
C1356       C  0.38403527  0.70836788  0.74221377     0.42390
C1357       C  0.41421315  0.82715301  0.85862735    -0.07290
N1358       N  0.42960601  0.85435481  0.69723485    -0.26040
H1359       H  0.50265074  0.80190052  0.77489601     0.06540
N1360       N  0.35914341  0.72489327  0.75455982    -0.47260
H1361       H  0.39644513  0.82590971  0.87981398     0.06530
C1362       C  0.39120314  0.92913647  0.76516181     0.42230
C1363       C  0.30810015  0.78101237  0.82839077    -0.06790
Co1364     Co  0.36539169  0.84382796  0.79913566     0.73820
N1365       N  0.45853744  0.81802653  0.82517623    -0.46980
C1366       C  0.32500669  0.76838962  0.63463275     0.42490
N1367       N  0.30076897  0.87429325  0.77337174    -0.46970
Co1368     Co  0.43552120  0.84426054  0.75177633     0.73890
C1369       C  0.43143184  0.88132118  0.68111169    -0.07300
C1370       C  0.40258390  0.72581184  0.71732297    -0.06860
N1371       N  0.30837810  0.82930350  0.75006536    -0.26390
N1372       N  0.46496316  0.75880670  0.71637246    -0.47150
H1373       H  0.37645126  0.77688021  0.61768285     0.06500
C1374       C  0.36848630  0.90996096  0.78292050    -0.07270
Cl1375     Cl  0.38406933  0.81735611  0.74694335    -0.50270
C1376       C  0.44579830  0.81374998  0.85846216     0.42260
H1377       H  0.26511341  0.82567344  0.71840986     0.06470
N1378       N  0.41619328  0.91212096  0.75363874    -0.46990
C1379       C  0.18530314  0.70533714  0.87325747     0.42110
N1380       N  0.16502531  0.68906700  0.82438263     0.01000
C1381       C  0.15208054  0.74397750  0.65196462    -0.06880
H1382       H  0.08610481  0.78978097  0.72719447     0.06490
C1383       C  0.02078845  0.70760785  0.75504438    -0.07230
Co1384     Co  0.17987704  0.71919934  0.75507590     0.74180
N1385       N  0.12167333  0.75578356  0.73785110    -0.26410
Co1386     Co  0.10843456  0.71975623  0.70447364     0.74070
C1387       C  0.01718274  0.73907179  0.74131182     0.42210
N1388       N  0.08041893  0.66133248  0.80573442     0.00610
N1389       N  0.06367735  0.72108811  0.72737658     0.00720
N1390       N  0.19738653  0.74863840  0.68334140    -0.47260
H1391       H  0.21311124  0.74228087  0.84125364     0.06480
N1392       N  0.14817518  0.75572865  0.75768520     0.01000
N1393       N  0.09685770  0.67885086  0.67569068     0.00740
C1394       C  0.09394726  0.63996291  0.63910618     0.42350
N1395       N  0.10767785  0.65609183  0.82259136    -0.25870
C1396       C  0.23837622  0.67313026  0.74006746    -0.06790
N1397       N  0.16691427  0.68468221  0.85899115    -0.46970
N1398       N  0.10183460  0.66999419  0.64163449    -0.47190
C1399       C  0.24448422  0.64116897  0.74919091     0.42120
N1400       N  0.17874795  0.72793533  0.69861195     0.00990
N1401       N  0.13744393  0.62034112  0.76508520    -0.25890
N1402       N  0.18062566  0.71254555  0.81237645    -0.26380
N1403       N  0.10890441  0.61929655  0.75056531     0.00630
H1404       H  0.17796057  0.59045250  0.76625395     0.06520
H1405       H  0.07143019  0.61099676  0.68275341     0.06560
N1406       N  0.15170067  0.72520406  0.68031533    -0.26430
N1407       N  0.05094408  0.69862525  0.74543586    -0.26040
N1408       N  0.19693686  0.65449875  0.76745221     0.01000
C1409       C  0.12777694  0.79950998  0.76548750     0.42390
C1410       C  0.10329667  0.66152871  0.85796582    -0.07290
N1411       N  0.08438536  0.65676749  0.69478674    -0.26040
H1412       H  0.00343611  0.69397543  0.76938794     0.06540
N1413       N  0.15330211  0.78200999  0.77349042    -0.47260
H1414       H  0.12096088  0.66036538  0.87905988     0.06530
C1415       C  0.13360791  0.57890523  0.73405605     0.42230
C1416       C  0.19589783  0.72409516  0.84177984    -0.06790
Co1417     Co  0.15180545  0.65447519  0.79482516     0.73820
N1418       N  0.05848289  0.67336381  0.82743161    -0.46980
C1419       C  0.18145531  0.76096333  0.65481813     0.42490
N1420       N  0.21780814  0.63177478  0.76662453    -0.46970
Co1421     Co  0.07970627  0.65855610  0.74972139     0.73890
C1422       C  0.08151292  0.63226985  0.67426827    -0.07300
C1423       C  0.10713768  0.78236506  0.74170679    -0.06860
N1424       N  0.20823850  0.67920412  0.75193433    -0.26390
N1425       N  0.04481375  0.74497975  0.72436284    -0.47150
H1426       H  0.13106010  0.75035804  0.63669075     0.06500
C1427       C  0.15443504  0.59618453  0.75638098    -0.07270
Cl1428     Cl  0.13014374  0.68810506  0.75075030    -0.50270
C1429       C  0.07187501  0.67479304  0.86068412     0.42260
H1430       H  0.25447280  0.68924167  0.72779323     0.06470
N1431       N  0.10515949  0.59376865  0.73248941    -0.46990
C1432       C  0.06091168  0.92758958  0.86033556     0.42110
N1433       N  0.09666188  0.93520345  0.82029287     0.01000
C1434       C  0.11109198  0.89844719  0.63918534    -0.06880
H1435       H  0.17493131  0.83871416  0.72779493     0.06490
C1436       C  0.24182623  0.91891902  0.75891856    -0.07230
Co1437     Co  0.08226024  0.91375662  0.74574215     0.74180
N1438       N  0.13862382  0.87327633  0.73059488    -0.26410
Co1439     Co  0.15705341  0.90902072  0.69968510     0.74070
C1440       C  0.24730381  0.88846258  0.74533638     0.42210
N1441       N  0.18490825  0.95927471  0.80611248     0.00610
N1442       N  0.20159196  0.90473901  0.72611952     0.00720
N1443       N  0.06341429  0.89755148  0.66802645    -0.47260
H1444       H  0.02966322  0.90154856  0.81899241     0.06480
N1445       N  0.11070537  0.87490553  0.74797079     0.01000
N1446       N  0.17322341  0.94953155  0.67368742     0.00740
C1447       C  0.18276213  0.98801504  0.63955989     0.42350
N1448       N  0.15746080  0.96354135  0.82313376    -0.25870
C1449       C  0.03019702  0.96474009  0.73156333    -0.06790
N1450       N  0.08858983  0.94068403  0.85373229    -0.46970
N1451       N  0.17085008  0.95933243  0.63955890    -0.47190
C1452       C  0.02530379  0.49514002  0.74648931     0.42120
N1453       N  0.08578481  0.90989505  0.68884652     0.00990
N1454       N  0.13198550  0.50650116  0.76941408    -0.25890
N1455       N  0.07695449  0.91727684  0.80305593    -0.26380
N1456       N  0.15979963  0.50631168  0.75292385     0.00630
H1457       H  0.09274080  0.53797446  0.77183785     0.06520
H1458       H  0.20423030  0.51483302  0.68601759     0.06560
N1459       N  0.11407865  0.90971411  0.67257241    -0.26430
N1460       N  0.21297800  0.92691524  0.74570591    -0.26040
N1461       N  0.07005130  0.97684987  0.76635617     0.01000
C1462       C  0.12981349  0.83189060  0.76241420     0.42390
C1463       C  0.16044332  0.95295471  0.85692495    -0.07290
N1464       N  0.18604320  0.97019912  0.69489717    -0.26040
H1465       H  0.25709737  0.93279639  0.77560637     0.06540
N1466       N  0.10418434  0.85014960  0.76639708    -0.47260
H1467       H  0.14155912  0.95093927  0.87669914     0.06530
C1468       C  0.13598700  0.54691385  0.73657229     0.42230
C1469       C  0.05223995  0.91182565  0.82625953    -0.06790
Co1470     Co  0.11433054  0.97102910  0.79510680     0.73820
N1471       N  0.20568261  0.94327912  0.82571043    -0.46980
C1472       C  0.07778418  0.88996090  0.63637010     0.42490
N1473       N  0.05073882  0.50067505  0.76798936    -0.46970
Co1474     Co  0.18689048  0.96636280  0.75040825     0.73890
C1475       C  0.19376798  0.99437824  0.67560896    -0.07300
C1476       C  0.15224357  0.84677853  0.73820055    -0.06860
N1477       N  0.05842908  0.95532996  0.74535444    -0.26390
N1478       N  0.22142029  0.88126296  0.72503987    -0.47150
H1479       H  0.13087740  0.89151923  0.62211254     0.06500
C1480       C  0.11594891  0.53142325  0.76161432    -0.07270
Cl1481     Cl  0.13493312  0.94002710  0.74730049    -0.50270
C1482       C  0.19161485  0.93849105  0.85815921     0.42260
H1483       H  0.01420033  0.95134480  0.71513121     0.06470
N1484       N  0.16371230  0.53114342  0.73355104    -0.46990
C1485       C  0.19802317  0.54901742  0.38829191     0.42110
N1486       N  0.20922393  0.51258938  0.42424134     0.01000
C1487       C  0.22108493  0.52372903  0.60688074    -0.06880
H1488       H  0.28971777  0.60322048  0.51840269     0.06490
C1489       C  0.35288015  0.52946964  0.48288349    -0.07230
Co1490     Co  0.19541719  0.53126815  0.49971742     0.74180
N1491       N  0.25024354  0.57226804  0.51689542    -0.26410
Co1492     Co  0.26745726  0.53739851  0.54416418     0.74070
C1493       C  0.35757945  0.56006633  0.49728142     0.42210
N1494       N  0.29730219  0.97485473  0.43917298     0.00610
N1495       N  0.31222067  0.54234775  0.51624744     0.00720
N1496       N  0.17669347  0.51054927  0.57626223    -0.47260
H1497       H  0.17624232  0.57757599  0.43348179     0.06480
N1498       N  0.22244933  0.57197795  0.50044631     0.01000
N1499       N  0.28372090  0.00111656  0.57006191     0.00740
C1500       C  0.31576546  0.99102224  0.61297542     0.42350
N1501       N  0.26897959  0.97556445  0.42323452    -0.25870
C1502       C  0.14352763  0.98028822  0.51128500    -0.06790
N1503       N  0.21098839  0.52089685  0.38966464    -0.46970
N1504       N  0.28916248  0.00516830  0.60437307    -0.47190
C1505       C  0.14192920  0.94845028  0.50079205     0.42120
N1506       N  0.19715681  0.52591633  0.55550543     0.00990
N1507       N  0.24563282  0.93771206  0.48073096    -0.25890
N1508       N  0.19588640  0.53368000  0.44446711    -0.26380
N1509       N  0.27305441  0.93948671  0.49864135     0.00630
H1510       H  0.21055368  0.90230385  0.47550237     0.06520
H1511       H  0.34865307  0.96412113  0.57369055     0.06560
N1512       N  0.22423140  0.53175063  0.57221801    -0.26430
N1513       N  0.32423240  0.52044724  0.49601999    -0.26040
N1514       N  0.18415588  0.96838593  0.47819825     0.01000
C1515       C  0.24702991  0.61221317  0.48289691     0.42390
C1516       C  0.27101661  0.96437190  0.38983365    -0.07290
N1517       N  0.30382872  0.98270971  0.55396599    -0.26040
H1518       H  0.36924041  0.51572169  0.46723111     0.06540
N1519       N  0.21899588  0.59660436  0.48036859    -0.47260
H1520       H  0.25066837  0.95760354  0.37368114     0.06530
C1521       C  0.25457401  0.89581070  0.51133788     0.42230
C1522       C  0.18712699  0.55687721  0.42402824    -0.06790
Co1523     Co  0.22687238  0.97351133  0.45071320     0.73820
N1524       N  0.31876872  0.96131867  0.41802411    -0.46980
C1525       C  0.19065052  0.50827269  0.60909045     0.42490
N1526       N  0.16731452  0.94319860  0.47935244    -0.46970
Co1527     Co  0.30051376  0.97883389  0.49649452     0.73890
C1528       C  0.32633422  0.97570326  0.57911009    -0.07300
C1529       C  0.26667388  0.59668505  0.50815708    -0.06860
N1530       N  0.17111854  0.99043138  0.49678654    -0.26390
N1531       N  0.33162042  0.56607628  0.51794959    -0.47150
H1532       H  0.23960648  0.52398829  0.62704877     0.06500
C1533       C  0.23255443  0.91077557  0.48702451    -0.07270
Cl1534     Cl  0.24779515  0.50532259  0.49732895    -0.50270
C1535       C  0.30361254  0.95427492  0.38662759     0.42260
H1536       H  0.12712027  0.99323662  0.52785665     0.06470
N1537       N  0.27980896  0.91437402  0.51636337    -0.46990
C1538       C  0.29965434  0.70689355  0.38696767     0.42110
N1539       N  0.29042626  0.74389366  0.42382020     0.01000
C1540       C  0.28318604  0.73095487  0.60787261    -0.06880
H1541       H  0.20817791  0.65461504  0.51933202     0.06490
C1542       C  0.14757005  0.73413406  0.48938944    -0.07230
Co1543     Co  0.30539077  0.72332501  0.49892635     0.74180
N1544       N  0.24866631  0.68444789  0.51661224    -0.26410
Co1545     Co  0.23393229  0.71905325  0.54597270     0.74070
C1546       C  0.14228788  0.70205852  0.49923993     0.42210
N1547       N  0.20610343  0.78952785  0.44705636     0.00610
N1548       N  0.18873703  0.71753409  0.51879052     0.00720
N1549       N  0.32721647  0.74086817  0.57520095    -0.47260
H1550       H  0.31967523  0.67732831  0.43187844     0.06480
N1551       N  0.27610667  0.68396691  0.49939762     0.01000
N1552       N  0.21949650  0.75386526  0.57468376     0.00740
C1553       C  0.19846675  0.77140685  0.62278038     0.42350
N1554       N  0.23330707  0.78791505  0.42856911    -0.25870
C1555       C  0.36263853  0.77175024  0.50743864    -0.06790
N1556       N  0.28908929  0.73609137  0.38887305    -0.46970
N1557       N  0.21693171  0.75017607  0.60945112    -0.47190
C1558       C  0.36750650  0.80273591  0.49360766     0.42120
N1559       N  0.30523213  0.72699186  0.55524057     0.00990
N1560       N  0.26256322  0.81983497  0.48578700    -0.25890
N1561       N  0.30246928  0.72189069  0.44358331    -0.26380
N1562       N  0.23590854  0.81963853  0.50553980     0.00630
H1563       H  0.29841071  0.85364838  0.47582466     0.06520
H1564       H  0.17107247  0.80753233  0.58910742     0.06560
N1565       N  0.27830509  0.72265640  0.57321726    -0.26430
N1566       N  0.17712759  0.74153242  0.50200146    -0.26040
N1567       N  0.32175066  0.78566405  0.47631374     0.01000
C1568       C  0.24978382  0.64446611  0.48217973     0.42390
C1569       C  0.23093237  0.80428125  0.39817413    -0.07290
N1570       N  0.20394388  0.77703738  0.56164532    -0.26040
H1571       H  0.13135314  0.74936910  0.47577420     0.06540
N1572       N  0.27822075  0.65937396  0.47899706    -0.47260
H1573       H  0.25094972  0.81081851  0.38129312     0.06530
C1574       C  0.25647922  0.86333299  0.51403323     0.42230
C1575       C  0.30936825  0.69836915  0.42280678    -0.06790
Co1576     Co  0.27695858  0.78404451  0.45275334     0.73820
N1577       N  0.18535994  0.80733434  0.43027082    -0.46980
C1578       C  0.31465568  0.74463102  0.60870776     0.42490
N1579       N  0.34106507  0.80935516  0.47457699    -0.46970
Co1580     Co  0.20480709  0.78235741  0.50391797     0.73890
C1581       C  0.18835381  0.78938432  0.59048545    -0.07300
C1582       C  0.23114685  0.66062950  0.50804778    -0.06860
N1583       N  0.33338830  0.76317929  0.49528525    -0.26390
N1584       N  0.16866465  0.69419349  0.51814086    -0.47150
H1585       H  0.26579950  0.73157621  0.62938742     0.06500
C1586       C  0.27710627  0.84632215  0.48997625    -0.07270
Cl1587     Cl  0.25500914  0.75223469  0.49998376    -0.50270
C1588       C  0.19978906  0.81843835  0.40004700     0.42260
H1589       H  0.37863832  0.75808148  0.52354645     0.06470
N1590       N  0.23081765  0.84582794  0.52173615    -0.46990
C1591       C  0.46339531  0.67781192  0.38617801     0.42110
N1592       N  0.46487348  0.63878282  0.42270997     0.01000
C1593       C  0.47362353  0.65142171  0.60542066    -0.06880
H1594       H  0.04387493  0.72850246  0.51415304     0.06490
C1595       C  0.10730270  0.65136771  0.48575249    -0.07230
Co1596     Co  0.44795840  0.65884200  0.49776298     0.74180
N1597       N  0.00393334  0.69805044  0.51373450    -0.26410
Co1598     Co  0.02022603  0.66406746  0.54233771     0.74070
C1599       C  0.11208002  0.68315946  0.49746128     0.42210
N1600       N  0.04778489  0.59247236  0.44371184     0.00610
N1601       N  0.06489456  0.66703211  0.51390281     0.00720
N1602       N  0.42798194  0.64041461  0.57575802    -0.47260
H1603       H  0.44002050  0.70679488  0.42938240     0.06480
N1604       N  0.47552134  0.69851712  0.49889602     0.01000
N1605       N  0.03733083  0.63069104  0.57156275     0.00740
C1606       C  0.07538906  0.62773478  0.60913229     0.42350
N1607       N  0.02025221  0.59368254  0.42609208    -0.25870
C1608       C  0.39090355  0.61143362  0.50598706    -0.06790
N1609       N  0.47066237  0.64765600  0.38874718    -0.46970
N1610       N  0.04758553  0.64056784  0.60270238    -0.47190
C1611       C  0.38572279  0.58051875  0.49255658     0.42120
N1612       N  0.44904383  0.65430219  0.55422000     0.00990
N1613       N  0.49275992  0.56318167  0.48548466    -0.25890
N1614       N  0.45244689  0.66093499  0.44195459    -0.26380
N1615       N  0.02003751  0.56421398  0.50417067     0.00630
H1616       H  0.45735193  0.52855177  0.47776601     0.06520
H1617       H  0.10332042  0.59504974  0.57177703     0.06560
N1618       N  0.47660346  0.65928603  0.57061641    -0.26430
N1619       N  0.07719653  0.64356483  0.49645619    -0.26040
N1620       N  0.43219125  0.59660560  0.47557288     0.01000
C1621       C  0.49986560  0.73852963  0.48099246     0.42390
C1622       C  0.02125567  0.57508511  0.39736286    -0.07290
N1623       N  0.05567136  0.61010664  0.55645771    -0.26040
H1624       H  0.12458616  0.63623070  0.47359890     0.06540
N1625       N  0.47156187  0.72354557  0.47991838    -0.47260
H1626       H  0.00046994  0.56775956  0.38234058     0.06530
C1627       C  0.00063387  0.52021387  0.51441036     0.42230
C1628       C  0.45006565  0.68542651  0.42122488    -0.06790
Co1629     Co  0.47730100  0.59826019  0.45159980     0.73820
N1630       N  0.06716039  0.57244602  0.42834742    -0.46980
C1631       C  0.44209018  0.63814685  0.60867471     0.42490
N1632       N  0.41243274  0.57319685  0.47392473    -0.46970
Co1633     Co  0.05077168  0.60212081  0.49980829     0.73890
C1634       C  0.08131838  0.60658191  0.57877182    -0.07300
C1635       C  0.02053671  0.72220797  0.50446753    -0.06860
N1636       N  0.42043767  0.61932470  0.49403410    -0.26390
N1637       N  0.08491204  0.69033946  0.51538721    -0.47150
H1638       H  0.49271898  0.65029514  0.62490375     0.06500
C1639       C  0.47889600  0.53647854  0.49087745    -0.07270
Cl1640     Cl  0.49929711  0.63064383  0.49761259    -0.50270
C1641       C  0.05162359  0.55962786  0.39991166     0.42260
H1642       H  0.37490211  0.62560202  0.52158777     0.06470
N1643       N  0.02611400  0.53834429  0.52066556    -0.46990
C1644       C  0.05389435  0.83120086  0.38786118     0.42110
N1645       N  0.04264335  0.86820833  0.42406729     0.01000
C1646       C  0.03196045  0.85849305  0.60761055    -0.06880
H1647       H  0.46042376  0.77934675  0.51927894     0.06490
C1648       C  0.39970718  0.85495096  0.48483924    -0.07230
Co1649     Co  0.05630157  0.84857846  0.49974653     0.74180
N1650       N  0.50043835  0.80980647  0.51733504    -0.26410
Co1651     Co  0.48437970  0.84501362  0.54554836     0.74070
C1652       C  0.39491219  0.82398811  0.49874552     0.42210
N1653       N  0.45695846  0.91282200  0.44315259     0.00610
N1654       N  0.43998200  0.84163567  0.51795345     0.00720
N1655       N  0.07791398  0.86396561  0.57645263    -0.47260
H1656       H  0.07479155  0.80276786  0.43335040     0.06480
N1657       N  0.02791071  0.80966050  0.50003401     0.01000
N1658       N  0.46842517  0.88051777  0.57275882     0.00740
C1659       C  0.43616683  0.89133660  0.61549886     0.42350
N1660       N  0.48476359  0.91163619  0.42579453    -0.25870
C1661       C  0.11077047  0.89736380  0.51118383    -0.06790
N1662       N  0.04121538  0.85968414  0.38933004    -0.46970
N1663       N  0.46164968  0.87539883  0.60659657    -0.47190
C1664       C  0.11368778  0.92907264  0.50039869     0.42120
N1665       N  0.05518399  0.85205252  0.55588391     0.00990
N1666       N  0.01073993  0.94458353  0.48434496    -0.25890
N1667       N  0.05551109  0.84685384  0.44423478    -0.26380
N1668       N  0.48342066  0.94360738  0.50293045     0.00630
H1669       H  0.04611448  0.97944154  0.47702443     0.06520
H1670       H  0.40593885  0.92121482  0.57691650     0.06560
N1671       N  0.02766752  0.84970977  0.57315411    -0.26430
N1672       N  0.42835015  0.86398941  0.49818327    -0.26040
N1673       N  0.07039638  0.91085158  0.47884503     0.01000
C1674       C  0.00235399  0.77048400  0.48208192     0.42390
C1675       C  0.48358238  0.92921842  0.39624243    -0.07290
N1676       N  0.44980123  0.90040203  0.55715427    -0.26040
H1677       H  0.38344781  0.86875820  0.46925343     0.06540
N1678       N  0.03050896  0.78554450  0.47909803    -0.47260
H1679       H  0.50433578  0.93651205  0.38100044     0.06530
C1680       C  0.50262270  0.98750282  0.51370957     0.42230
C1681       C  0.06415685  0.82352395  0.42377355    -0.06790
Co1682     Co  0.02731589  0.90850021  0.45224466     0.73820
N1683       N  0.43710830  0.93157916  0.42647454    -0.46980
C1684       C  0.06476229  0.86884146  0.60937707     0.42490
N1685       N  0.08826154  0.93536125  0.47973959    -0.46970
Co1686     Co  0.45375985  0.90549228  0.49994735     0.73890
C1687       C  0.42732739  0.90816291  0.58221569    -0.07300
C1688       C  0.48340242  0.78579435  0.50846801    -0.06860
N1689       N  0.08253463  0.88833864  0.49725290    -0.26390
N1690       N  0.42063708  0.81793596  0.51926285    -0.47150
H1691       H  0.01372530  0.86114496  0.62804129     0.06500
C1692       C  0.02436345  0.97145618  0.48972430    -0.07270
Cl1693     Cl  0.50490532  0.87692970  0.49855992    -0.50270
C1694       C  0.45268689  0.94394660  0.39773734     0.42260
H1695       H  0.12677703  0.88379414  0.52741027     0.06470
N1696       N  0.47720099  0.96931110  0.51976991    -0.46990
C1697       C  0.94672692  0.19148799  0.35526198     0.42110
N1698       N  0.90771917  0.18987900  0.31840025     0.01000
C1699       C  0.89468521  0.21499292  0.13502866    -0.06880
H1700       H  0.82970865  0.27829410  0.21332087     0.06490
C1701       C  0.76315027  0.20335370  0.25514892    -0.07230
Co1702     Co  0.92286901  0.20599285  0.24247572     0.74180
N1703       N  0.86660953  0.24508641  0.22166739    -0.26410
Co1704     Co  0.84806088  0.20829029  0.19507547     0.74070
C1705       C  0.75812217  0.23360807  0.24065047     0.42210
N1706       N  0.81899779  0.16606556  0.30544831     0.00610
N1707       N  0.80315048  0.21534764  0.22078113     0.00720
N1708       N  0.94183040  0.21886461  0.16424658    -0.47260
H1709       H  0.97939132  0.21246157  0.31120450     0.06480
N1710       N  0.89368914  0.24479437  0.24069020     0.01000
N1711       N  0.83175020  0.16724375  0.17274354     0.00740
C1712       C  0.82294042  0.12854734  0.13917890     0.42350
N1713       N  0.84666564  0.16353996  0.32242889    -0.25870
C1714       C  0.97673364  0.15660688  0.23607526    -0.06790
N1715       N  0.91663337  0.18343649  0.35131365    -0.46970
N1716       N  0.83439503  0.15713887  0.13896228    -0.47190
C1717       C  0.98232636  0.12739385  0.25342463     0.42120
N1718       N  0.91965861  0.20653693  0.18547555     0.00990
N1719       N  0.87066367  0.11575749  0.27632637    -0.25890
N1720       N  0.92888691  0.20507480  0.29968360    -0.26380
N1721       N  0.84308747  0.11494496  0.25934197     0.00630
H1722       H  0.90608534  0.08293439  0.29127168     0.06520
H1723       H  0.80235657  0.10150927  0.18673558     0.06560
N1724       N  0.89155157  0.20516462  0.16894271    -0.26430
N1725       N  0.79153835  0.19418708  0.24172631    -0.26040
N1726       N  0.93474043  0.14407899  0.26780250     0.01000
C1727       C  0.87279596  0.28777042  0.24922982     0.42390
C1728       C  0.84379859  0.17637321  0.35498471    -0.07290
N1729       N  0.81921669  0.14696611  0.19478611    -0.26040
H1730       H  0.74816977  0.19063345  0.27350193     0.06540
N1731       N  0.89835328  0.27053740  0.25784063    -0.47260
H1732       H  0.86258676  0.17955255  0.37453182     0.06530
C1733       C  0.86104995  0.07022455  0.26005201     0.42230
C1734       C  0.95570452  0.20643990  0.32071247    -0.06790
Co1735     Co  0.88972881  0.15295486  0.29602029     0.73820
N1736       N  0.79758931  0.18210365  0.32433375    -0.46980
C1737       C  0.92761872  0.22467692  0.13213504     0.42490
N1738       N  0.95539505  0.12148327  0.27313402    -0.46970
Co1739     Co  0.81728488  0.15482122  0.25049040     0.73890
C1740       C  0.81219595  0.12212448  0.17584827    -0.07300
C1741       C  0.85224124  0.27160233  0.22520195    -0.06860
N1742       N  0.94687284  0.16485162  0.24600866    -0.26390
N1743       N  0.78393670  0.23946350  0.21928666    -0.47150
H1744       H  0.87482295  0.22108129  0.11776401     0.06500
C1745       C  0.88348447  0.08862016  0.27871088    -0.07270
Cl1746     Cl  0.86991842  0.18027777  0.24508143    -0.50270
C1747       C  0.81225795  0.18981488  0.35558197     0.42260
H1748       H  0.99351131  0.17054979  0.22129567     0.06470
N1749       N  0.83637221  0.08735315  0.24817084    -0.46990
C1750       C  0.76349124  0.98309496  0.24132769     0.42110
N1751       N  0.80661922  0.46152698  0.22153279     0.01000
C1752       C  0.88990138  0.33642780  0.27947168    -0.06880
H1753       H  0.86349166  0.41946416  0.38111175     0.06490
C1754       C  0.94471488  0.47058977  0.33206875    -0.07230
Co1755     Co  0.82183467  0.40174711  0.25329861     0.74180
N1756       N  0.84956078  0.40786548  0.32639191    -0.26410
Co1757     Co  0.89303218  0.40150674  0.29899418     0.74070
C1758       C  0.93505131  0.45552621  0.36658817     0.42210
N1759       N  0.89017933  0.99719371  0.24630196     0.00610
N1760       N  0.90755907  0.43899928  0.32245060     0.00720
N1761       N  0.84165305  0.33479678  0.25148551    -0.47260
H1762       H  0.75127781  0.44126121  0.27599976     0.06480
N1763       N  0.82228497  0.41107639  0.30880511     0.01000
N1764       N  0.93741310  0.39732187  0.26955171     0.00740
C1765       C  0.98209837  0.38098385  0.24668849     0.42350
N1766       N  0.86469847  0.99589098  0.22483080    -0.25870
C1767       C  0.82617392  0.36749300  0.18016443    -0.06790
N1768       N  0.78868276  0.98616763  0.21896862    -0.46970
N1769       N  0.95703206  0.37357921  0.26841169    -0.47190
C1770       C  0.83872198  0.37261870  0.14377821     0.42120
N1771       N  0.84841606  0.36238750  0.26234216     0.00990
N1772       N  0.89465795  0.46022894  0.17281252    -0.25890
N1773       N  0.79484603  0.44137206  0.24373719    -0.26380
N1774       N  0.92099645  0.46475920  0.19186918     0.00630
H1775       H  0.87483007  0.48289687  0.12664860     0.06520
H1776       H  0.99092549  0.42604940  0.21726722     0.06560
N1777       N  0.87652971  0.36354871  0.27803835    -0.26430
N1778       N  0.92492249  0.45931294  0.30613937    -0.26040
N1779       N  0.84027943  0.41410961  0.17615345     0.01000
C1780       C  0.81398419  0.43076473  0.36110280     0.42390
C1781       C  0.84939641  0.02217470  0.22525504    -0.07290
N1782       N  0.94821490  0.42010090  0.24975400    -0.26040
H1783       H  0.96480632  0.48544337  0.32717549     0.06540
N1784       N  0.80041710  0.42551437  0.32844119    -0.47260
H1785       H  0.82822454  0.02813988  0.21012476     0.06530
C1786       C  0.92396271  0.49609239  0.14649102     0.42230
C1787       C  0.76680175  0.45249885  0.25685958    -0.06790
Co1788     Co  0.85129939  0.45728464  0.19782237     0.73820
N1789       N  0.89298558  0.02371055  0.26201372    -0.46980
C1790       C  0.86689723  0.31776632  0.26165588     0.42490
N1791       N  0.84685324  0.40252375  0.14375596    -0.46970
Co1792     Co  0.92191397  0.46065071  0.24860933     0.73890
C1793       C  0.97625514  0.41194842  0.23444977    -0.07300
C1794       C  0.84555668  0.41774479  0.36038042    -0.06860
N1795       N  0.82776910  0.39377075  0.19794520    -0.26390
N1796       N  0.91212642  0.43700145  0.35713956    -0.47150
H1797       H  0.91276582  0.33081758  0.29143619     0.06500
C1798       C  0.89559443  0.47749415  0.14283981    -0.07270
Cl1799     Cl  0.87225391  0.43022624  0.24934821    -0.50270
C1800       C  0.86759216  0.03978125  0.25019648     0.42260
H1801       H  0.81720191  0.34660152  0.19115002     0.06470
N1802       N  0.93902977  0.48571093  0.17647727    -0.46990
C1803       C  0.51393044  0.11124226  0.25684689     0.42110
N1804       N  0.55038743  0.07644037  0.25505354     0.01000
C1805       C  0.70530792  0.06846993  0.32108044    -0.06880
H1806       H  0.67813090  0.16092845  0.21483981     0.06490
C1807       C  0.65361983  0.08026330  0.13890676    -0.07230
Co1808     Co  0.61193351  0.09400949  0.29516077     0.74180
N1809       N  0.65546625  0.12731805  0.24890776    -0.26410
Co1810     Co  0.68078882  0.08589174  0.24486202     0.74070
C1811       C  0.66553144  0.11192805  0.13983544     0.42210
N1812       N  0.59995112  0.03213929  0.17686799     0.00610
N1813       N  0.67387342  0.08934203  0.19074397     0.00720
N1814       N  0.66111450  0.07983588  0.35317629    -0.47260
H1815       H  0.54781641  0.14346906  0.28711433     0.06480
N1816       N  0.62762655  0.12778012  0.26549761     0.01000
N1817       N  0.70447228  0.04329836  0.23861757     0.00740
C1818       C  0.73493499  0.00342428  0.24012403     0.42350
N1819       N  0.57314120  0.02988776  0.19595497    -0.25870
C1820       C  0.59586105  0.06219657  0.35948756    -0.06790
N1821       N  0.52002657  0.08248814  0.24642091    -0.46970
N1822       N  0.73314862  0.03323117  0.24949483    -0.47190
C1823       C  0.56906976  0.04493517  0.37011219     0.42120
N1824       N  0.65745949  0.08785878  0.31910010     0.00990
N1825       N  0.60129331  0.49565078  0.25304032    -0.25890
N1826       N  0.56476112  0.09905805  0.27180128    -0.26380
N1827       N  0.62690624  0.49326811  0.23189440     0.00630
H1828       H  0.57777100  0.46453021  0.28915974     0.06520
H1829       H  0.69884381  0.47586677  0.20785916     0.06560
N1830       N  0.68322075  0.08172029  0.29980598    -0.26430
N1831       N  0.65917969  0.06839913  0.17198541    -0.26040
N1832       N  0.57657308  0.03956831  0.31219867     0.01000
C1833       C  0.62760142  0.16942966  0.23808519     0.42390
C1834       C  0.55134802  0.01650702  0.17401072    -0.07290
N1835       N  0.68857759  0.02220515  0.22150715    -0.26040
H1836       H  0.64083200  0.06913428  0.11731918     0.06540
N1837       N  0.61056485  0.15213665  0.26008488    -0.47260
H1838       H  0.52835980  0.00785876  0.18267011     0.06530
C1839       C  0.62406924  0.45099674  0.25925342     0.42230
C1840       C  0.54366247  0.12220609  0.27363074    -0.06790
Co1841     Co  0.57420618  0.03485222  0.25391911     0.73820
N1842       N  0.59779912  0.02154397  0.14368716    -0.46980
C1843       C  0.69012828  0.06706742  0.35645656     0.42490
N1844       N  0.55700749  0.03168340  0.33931473    -0.46970
Co1845     Co  0.64376810  0.02891374  0.19981514     0.73890
C1846       C  0.70577513  0.49666278  0.22083680    -0.07300
C1847       C  0.65843733  0.15406662  0.23204001    -0.06860
N1848       N  0.59713515  0.05938862  0.32416688    -0.26390
N1849       N  0.67761294  0.11480940  0.17310813    -0.47150
H1850       H  0.72782245  0.05884223  0.31237034     0.06500
C1851       C  0.59719538  0.46967574  0.27075693    -0.07270
Cl1852     Cl  0.62746689  0.06085252  0.24828600    -0.50270
C1853       C  0.56832993  0.01087166  0.13933566     0.42260
H1854       H  0.60554304  0.08139010  0.37383776     0.06470
N1855       N  0.64086671  0.46669905  0.23463922    -0.46990
C1856       C  0.73037617  0.25401257  0.24926671     0.42110
N1857       N  0.69793223  0.29204387  0.25312399     0.01000
C1858       C  0.54556539  0.30701477  0.32170857    -0.06880
H1859       H  0.57174629  0.20981830  0.21586610     0.06490
C1860       C  0.59895535  0.28818834  0.13912218    -0.07230
Co1861     Co  0.63749068  0.27680603  0.29661484     0.74180
N1862       N  0.59376142  0.24273622  0.25130416    -0.26410
Co1863     Co  0.56916887  0.28380348  0.24574476     0.74070
C1864       C  0.58887319  0.25596596  0.14055855     0.42210
N1865       N  0.65033284  0.33896272  0.17609593     0.00610
N1866       N  0.57740278  0.27935513  0.19081792     0.00720
N1867       N  0.58972360  0.29710280  0.35386906    -0.47260
H1868       H  0.69731309  0.22466235  0.28418865     0.06480
N1869       N  0.62105361  0.24205043  0.26862342     0.01000
N1870       N  0.54471890  0.32472641  0.23801700     0.00740
C1871       C  0.51070002  0.36168013  0.23845635     0.42350
N1872       N  0.67698933  0.33951923  0.19541195    -0.25870
C1873       C  0.65596106  0.30976466  0.35981518    -0.06790
N1874       N  0.72610869  0.28326051  0.23933870    -0.46970
N1875       N  0.51547901  0.33279014  0.24918436    -0.47190
C1876       C  0.68131991  0.32935860  0.36905570     0.42120
N1877       N  0.59237328  0.28550261  0.32101158     0.00990
N1878       N  0.64800829  0.37418818  0.25194628    -0.25890
N1879       N  0.68342998  0.27041686  0.27161706    -0.26380
N1880       N  0.62192344  0.37642346  0.23154693     0.00630
H1881       H  0.67151375  0.40531055  0.28798797     0.06520
H1882       H  0.54534924  0.39180762  0.20630595     0.06560
N1883       N  0.56658803  0.29078165  0.30144554    -0.26430
N1884       N  0.59175284  0.30047722  0.17177371    -0.26040
N1885       N  0.67361327  0.33138454  0.31100945     0.01000
C1886       C  0.62176649  0.20106845  0.23939107     0.42390
C1887       C  0.70018336  0.35166294  0.17421548    -0.07290
N1888       N  0.55934755  0.34637311  0.22039158    -0.26040
H1889       H  0.61223435  0.29935291  0.11785524     0.06540
N1890       N  0.63816171  0.21769477  0.26274061    -0.47260
H1891       H  0.72358373  0.35868197  0.18348907     0.06530
C1892       C  0.62468096  0.41855488  0.25925336     0.42230
C1893       C  0.70239288  0.24586203  0.27100148    -0.06790
Co1894     Co  0.67536535  0.33477078  0.25274604     0.73820
N1895       N  0.65393140  0.35002842  0.14321356    -0.46980
C1896       C  0.56150904  0.31166257  0.35636102     0.42490
N1897       N  0.69247494  0.34181284  0.33737241    -0.46970
Co1898     Co  0.60558592  0.34081695  0.19911089     0.73890
C1899       C  0.53979552  0.37053814  0.21908925    -0.07300
C1900       C  0.59103283  0.21632813  0.23368394    -0.06860
N1901       N  0.65411876  0.31122070  0.32436985    -0.26390
N1902       N  0.57551091  0.25345950  0.17351462    -0.47150
H1903       H  0.52348033  0.31698165  0.31260214     0.06500
C1904       C  0.65199556  0.40010666  0.26982313    -0.07270
Cl1905     Cl  0.62209542  0.30920031  0.24833948    -0.50270
C1906       C  0.68441439  0.35874751  0.13953629     0.42260
H1907       H  0.64653568  0.29131129  0.37575917     0.06470
N1908       N  0.60762564  0.40279789  0.23494202    -0.46990
C1909       C  0.81591955  0.10975705  0.10725263     0.42110
N1910       N  0.78429003  0.09011090  0.06785113     0.01000
C1911       C  0.77942231  0.10445446  0.88727775    -0.06880
H1912       H  0.83080371  0.20333215  0.96375982     0.06490
C1913       C  0.72605289  0.21059244  0.02513615    -0.07230
Co1914     Co  0.80882749  0.09328269  0.99298121     0.74180
N1915       N  0.81813448  0.15703469  0.97406005    -0.26410
Co1916     Co  0.77349237  0.15409855  0.95167286     0.74070
C1917       C  0.75306973  0.22993214  0.01526200     0.42210
N1918       N  0.70240861  0.13710527  0.05926348     0.00610
N1919       N  0.75759445  0.18788828  0.98732223     0.00720
N1920       N  0.80272371  0.06765810  0.91844510    -0.47260
H1921       H  0.85479206  0.11844900  0.06436356     0.06480
N1922       N  0.83305980  0.13440169  0.98924467     0.01000
N1923       N  0.73003272  0.15743759  0.92783282     0.00740
C1924       C  0.70149341  0.19343090  0.90501533     0.42350
N1925       N  0.72275134  0.11739511  0.07229986    -0.25870
C1926       C  0.78726186  0.02658306  0.97563923    -0.06790
N1927       N  0.78666900  0.09788104  0.10226880    -0.46970
N1928       N  0.72879682  0.17773310  0.90159448    -0.47190
C1929       C  0.75656070  0.01096891  0.98039271     0.42120
N1930       N  0.80103943  0.09256750  0.93782532     0.00990
N1931       N  0.69507790  0.07980347  0.01634008    -0.25890
N1932       N  0.81062586  0.09596212  0.04935534    -0.26380
N1933       N  0.68076909  0.10220711  0.99899940     0.00630
H1934       H  0.68060971  0.03434981  0.02946698     0.06520
H1935       H  0.66291247  0.18654441  0.94828365     0.06560
N1936       N  0.78676950  0.11492502  0.92075580    -0.26430
N1937       N  0.73113565  0.18478805  0.00710862    -0.26040
N1938       N  0.75661031  0.05110641  0.01141522     0.01000
C1939       C  0.86558673  0.17183880  0.99280348     0.42390
C1940       C  0.71571031  0.11030638  0.10588160    -0.07290
N1941       N  0.70360826  0.15674522  0.94767128    -0.26040
H1942       H  0.70545945  0.21559154  0.04192720     0.06540
N1943       N  0.86239601  0.14197980  0.99999737    -0.47260
H1944       H  0.72432190  0.09016543  0.11923100     0.06530
C1945       C  0.64730513  0.06473864  0.99662822     0.42230
C1946       C  0.83208557  0.10861603  0.07203859    -0.06790
Co1947     Co  0.74006856  0.08436308  0.04206449     0.73820
N1948       N  0.67803676  0.14108452  0.08218063    -0.46980
C1949       C  0.78926392  0.07203562  0.88592076     0.42490
N1950       N  0.73968212  0.02704266  0.00404915    -0.46970
Co1951     Co  0.70350581  0.14529354  0.00296479     0.73890
C1952       C  0.68400953  0.17820289  0.93447452    -0.07300
C1953       C  0.83663008  0.18156518  0.97512606    -0.06860
N1954       N  0.78417029  0.05230613  0.99460561    -0.26390
N1955       N  0.77102462  0.21457557  0.99125192    -0.47150
H1956       H  0.76617740  0.11689616  0.86709825     0.06500
C1957       C  0.67576931  0.05558962  0.01624195    -0.07270
Cl1958     Cl  0.75620789  0.11939763  0.99716562    -0.50270
C1959       C  0.68591507  0.12488128  0.11207026     0.42260
H1960       H  0.80691636  0.02075712  0.95780240     0.06470
N1961       N  0.65176219  0.09421255  0.98711991    -0.46990
C1962       C  0.69417205  0.37899106  0.10962614     0.42110
N1963       N  0.72535473  0.39982340  0.07041069     0.01000
C1964       C  0.71638173  0.38690753  0.88727583    -0.06880
H1965       H  0.67135189  0.28991338  0.96248550     0.06490
C1966       C  0.78046627  0.28162383  0.02325120    -0.07230
Co1967     Co  0.69732158  0.39821285  0.99654266     0.74180
N1968       N  0.68641391  0.33489024  0.97648941    -0.26410
Co1969     Co  0.73088153  0.33834965  0.95188732     0.74070
C1970       C  0.75288275  0.26261316  0.01497476     0.42210
N1971       N  0.80564417  0.35287553  0.05860773     0.00610
N1972       N  0.74848653  0.30423793  0.98604901     0.00720
N1973       N  0.69106499  0.42192376  0.92111137    -0.47260
H1974       H  0.65350020  0.37499832  0.06842331     0.06480
N1975       N  0.67268328  0.35710295  0.99418123     0.01000
N1976       N  0.77416730  0.33671440  0.92588077     0.00740
C1977       C  0.80536247  0.30797251  0.89493596     0.42350
N1978       N  0.78645324  0.37346145  0.07182478    -0.25870
C1979       C  0.72085331  0.46378804  0.97615909    -0.06790
N1980       N  0.72387722  0.38973621  0.10421687    -0.46970
N1981       N  0.77597722  0.32009771  0.89599023    -0.47190
C1982       C  0.75175475  0.47921732  0.98033404     0.42120
N1983       N  0.69968829  0.39853309  0.94075221     0.00990
N1984       N  0.81340572  0.41142948  0.01529005    -0.25890
N1985       N  0.69821503  0.39586502  0.05288163    -0.26380
N1986       N  0.82751365  0.38868780  0.99831376     0.00630
H1987       H  0.82948085  0.45614275  0.02968588     0.06520
H1988       H  0.84580640  0.31359242  0.93637699     0.06560
N1989       N  0.71444271  0.37713137  0.92209748    -0.26430
N1990       N  0.77548861  0.30713549  0.00476701    -0.26040
N1991       N  0.75113996  0.43976754  0.01257628     0.01000
C1992       C  0.63827236  0.32091729  0.99529995     0.42390
C1993       C  0.79167358  0.37821049  0.10635526    -0.07290
N1994       N  0.80141622  0.33757796  0.94436928    -0.26040
H1995       H  0.80110507  0.27677389  0.03990607     0.06540
N1996       N  0.64340610  0.34986181  0.00578675    -0.47260
H1997       H  0.78316495  0.39779528  0.12101518     0.06530
C1998       C  0.86277337  0.42492230  0.99742341     0.42230
C1999       C  0.67679668  0.38356085  0.07576778    -0.06790
Co2000     Co  0.76862226  0.40652335  0.04252928     0.73820
N2001       N  0.82778978  0.34568175  0.08327333    -0.46980
C2002       C  0.70104848  0.41717136  0.88718774     0.42490
N2003       N  0.76848588  0.46333896  0.00414167    -0.46970
Co2004     Co  0.80351555  0.34624381  0.00109383     0.73890
C2005       C  0.82275477  0.32064085  0.92604449    -0.07300
C2006       C  0.66663913  0.31115740  0.97580987    -0.06860
N2007       N  0.72338113  0.43860288  0.99616621    -0.26390
N2008       N  0.73463278  0.27785141  0.99121031    -0.47150
H2009       H  0.72748207  0.37482928  0.86513501     0.06500
C2010       C  0.83361761  0.43509724  0.01563900    -0.07270
Cl2011     Cl  0.75038897  0.37229306  0.99755109    -0.50270
C2012       C  0.81905141  0.36060298  0.11429334     0.42260
H2013       H  0.70132250  0.46949386  0.95830919     0.06470
N2014       N  0.85754359  0.39544928  0.98852218    -0.46990
C2015       C  0.56156779  0.48940738  0.10972502     0.42110
N2016       N  0.53218396  0.46638545  0.07084773     0.01000
C2017       C  0.53223514  0.47338786  0.88974869    -0.06880
H2018       H  0.58415670  0.07512910  0.95666513     0.06490
C2019       C  0.97826188  0.08558512  0.01944409    -0.07230
Co2020     Co  0.55918698  0.46707503  0.99670181     0.74180
N2021       N  0.56999564  0.03014372  0.97245539    -0.26410
Co2022     Co  0.52478680  0.02509974  0.95004769     0.74070
C2023       C  0.00636462  0.10354255  0.00915830     0.42210
N2024       N  0.95300825  0.01487520  0.05967097     0.00610
N2025       N  0.50838160  0.06082939  0.98216380     0.00720
N2026       N  0.55630993  0.43825625  0.92300273    -0.47260
H2027       H  0.60199320  0.49590647  0.06801815     0.06480
N2028       N  0.58409890  0.00867095  0.99092600     0.01000
N2029       N  0.98102157  0.02387470  0.92582596     0.00740
C2030       C  0.94819769  0.04414609  0.88880956     0.42350
N2031       N  0.97202086  0.49406011  0.07244157    -0.25870
C2032       C  0.53702144  0.39985587  0.98194038    -0.06790
N2033       N  0.53312409  0.47642485  0.10458184    -0.46970
N2034       N  0.97852261  0.03530935  0.89298736    -0.47190
C2035       C  0.50595644  0.38471747  0.98614296     0.42120
N2036       N  0.55350310  0.46373499  0.94122089     0.00990
N2037       N  0.94341011  0.45471436  0.01777570    -0.25890
N2038       N  0.55899943  0.47174825  0.05300040    -0.26380
N2039       N  0.92929069  0.47744358  0.00101267     0.00630
H2040       H  0.92763003  0.40949386  0.03049532     0.06520
H2041       H  0.90787163  0.04402309  0.93160840     0.06560
N2042       N  0.53908489  0.48507213  0.92263119    -0.26430
N2043       N  0.98184401  0.05916969  0.00210805    -0.26040
N2044       N  0.50555667  0.42575478  0.01525604     0.01000
C2045       C  0.61812059  0.04580197  0.99024986     0.42390
C2046       C  0.96857577  0.99069526  0.10743702    -0.07290
N2047       N  0.95389442  0.02456761  0.94447448    -0.26040
H2048       H  0.95846229  0.09156768  0.03697908     0.06540
N2049       N  0.61324828  0.01698956  0.00197767    -0.47260
H2050       H  0.97682213  0.47103477  0.12205470     0.06530
C2051       C  0.89461040  0.44086230  0.99822228     0.42230
C2052       C  0.57937284  0.48584621  0.07563413    -0.06790
Co2053     Co  0.98857582  0.45980725  0.04400775     0.73820
N2054       N  0.93244000  0.02331384  0.08565181    -0.46980
C2055       C  0.54303499  0.44140866  0.89009472     0.42490
N2056       N  0.48853780  0.40165642  0.00833502    -0.46970
Co2057     Co  0.95335743  0.01968187  0.00169603     0.73890
C2058       C  0.93143021  0.03685821  0.92283735    -0.07300
C2059       C  0.58943588  0.05426452  0.97053265    -0.06860
N2060       N  0.53373293  0.42621497  0.99959026    -0.26390
N2061       N  0.52327403  0.08691094  0.98545417    -0.47150
H2062       H  0.51916772  0.98493006  0.86867552     0.06500
C2063       C  0.92341468  0.43082878  0.01722860    -0.07270
Cl2064     Cl  0.50636173  0.49311716  0.99800136    -0.50270
C2065       C  0.94256326  0.00933877  0.11682425     0.42260
H2066       H  0.55712189  0.39322142  0.96519428     0.06470
N2067       N  0.89974789  0.47043357  0.99001717    -0.46990
C2068       C  0.93876516  0.24681951  0.10533382     0.42110
N2069       N  0.97213746  0.26907807  0.07010846     0.01000
C2070       C  0.97134990  0.26285042  0.88663996    -0.06880
H2071       H  0.93055970  0.16040533  0.96079485     0.06490
C2072       C  0.53520785  0.15534423  0.01839625    -0.07230
Co2073     Co  0.94785725  0.27048110  0.99496399     0.74180
N2074       N  0.94153426  0.20686187  0.97286145    -0.26410
Co2075     Co  0.98568879  0.21374655  0.94907470     0.74070
C2076       C  0.50804569  0.13627308  0.00810075     0.42210
N2077       N  0.55687796  0.22700491  0.05829503     0.00610
N2078       N  0.50419866  0.17865536  0.98081710     0.00720
N2079       N  0.94447120  0.29666674  0.92069242    -0.47260
H2080       H  0.90005489  0.24589484  0.06177405     0.06480
N2081       N  0.92586325  0.22831302  0.98980987     0.01000
N2082       N  0.52909477  0.21753410  0.92465918     0.00740
C2083       C  0.56244328  0.19688754  0.88839691     0.42350
N2084       N  0.53371659  0.24307412  0.07263829    -0.25870
C2085       C  0.97038237  0.33731175  0.97948715    -0.06790
N2086       N  0.96892198  0.25723898  0.10285613    -0.46970
N2087       N  0.53208556  0.20575174  0.89206871    -0.47190
C2088       C  0.00056968  0.35304763  0.98687143     0.42120
N2089       N  0.95253154  0.27283592  0.93973349     0.00990
N2090       N  0.56161888  0.28606550  0.02079379    -0.25890
N2091       N  0.94591259  0.26635008  0.05068366    -0.26380
N2092       N  0.57628488  0.26524660  0.00113300     0.00630
H2093       H  0.57564194  0.33096989  0.03738928     0.06520
H2094       H  0.60225389  0.19775727  0.93148194     0.06560
N2095       N  0.96821929  0.25226630  0.92090749    -0.26430
N2096       N  0.53037403  0.18147789  0.00088954    -0.26040
N2097       N  0.99882979  0.31279453  0.01748688     0.01000
C2098       C  0.89537436  0.18931989  0.99334270     0.42390
C2099       C  0.53939341  0.24928642  0.10680828    -0.07290
N2100       N  0.55603326  0.21743081  0.94346274    -0.26040
H2101       H  0.55498537  0.15042208  0.03631638     0.06540
N2102       N  0.89738547  0.21906238  0.00148914    -0.47260
H2103       H  0.52812838  0.26790541  0.12094088     0.06530
C2104       C  0.60904358  0.30268324  0.00138307     0.42230
C2105       C  0.92311715  0.25351544  0.07113203    -0.06790
Co2106     Co  0.51620875  0.27808607  0.04559550     0.73820
N2107       N  0.58196278  0.22657005  0.08076931    -0.46980
C2108       C  0.95589781  0.29286659  0.88716166     0.42490
N2109       N  0.51597978  0.33702288  0.01161809    -0.46970
Co2110     Co  0.55591185  0.22228669  0.00063310     0.73890
C2111       C  0.57882779  0.20483602  0.92231155    -0.07300
C2112       C  0.92419559  0.18148683  0.97358769    -0.06860
N2113       N  0.97232079  0.31156636  0.99855317    -0.26390
N2114       N  0.49058644  0.15198531  0.98420107    -0.47150
H2115       H  0.98369210  0.25160156  0.86469725     0.06500
C2116       C  0.58064722  0.31052724  0.02244892    -0.07270
Cl2117     Cl  0.50162795  0.24616110  0.99725738    -0.50270
C2118       C  0.57148962  0.23984550  0.11203176     0.42260
H2119       H  0.95205238  0.34310557  0.96011297     0.06470
N2120       N  0.60490420  0.27406100  0.98944925    -0.46990
C2121       C  0.80683661  0.05782964  0.85599848     0.42110
N2122       N  0.84584521  0.06126180  0.81904604     0.01000
C2123       C  0.86428386  0.02036803  0.64057643    -0.06880
H2124       H  0.92821632  0.46959000  0.71770649     0.06490
C2125       C  0.99217199  0.04588812  0.75784378    -0.07230
Co2126     Co  0.83339982  0.04121870  0.74401211     0.74180
N2127       N  0.89092523  0.50247531  0.72602849    -0.26410
Co2128     Co  0.90822024  0.03902173  0.69750703     0.74070
C2129       C  0.99769000  0.51614262  0.74143192     0.42210
N2130       N  0.93371841  0.08611100  0.80823219     0.00610
N2131       N  0.95248318  0.03430695  0.72321919     0.00720
N2132       N  0.81748338  0.01867507  0.67042054    -0.47260
H2133       H  0.77608678  0.53373556  0.81258847     0.06480
N2134       N  0.86370481  0.50261125  0.74502278     0.01000
N2135       N  0.92350386  0.08038290  0.67382657     0.00740
C2136       C  0.93264114  0.11920198  0.64005222     0.42350
N2137       N  0.90563112  0.08947113  0.82424324    -0.25870
C2138       C  0.77968656  0.09234085  0.73241806    -0.06790
N2139       N  0.83618654  0.06790229  0.85165153    -0.46970
N2140       N  0.92157616  0.09032375  0.63979773    -0.47190
C2141       C  0.77504011  0.12309746  0.74698406     0.42120
N2142       N  0.83765616  0.03666953  0.68754613     0.00990
N2143       N  0.88299124  0.13431189  0.77476554    -0.25890
N2144       N  0.82591797  0.04443976  0.80077152    -0.26380
N2145       N  0.91081100  0.13476049  0.75819936     0.00630
H2146       H  0.84660247  0.16713445  0.78667772     0.06520
H2147       H  0.95237203  0.14631140  0.68771012     0.06560
N2148       N  0.86565419  0.03758422  0.67055452    -0.26430
N2149       N  0.96352927  0.05516426  0.74498294    -0.26040
N2150       N  0.82068903  0.10474521  0.76510250     0.01000
C2151       C  0.88530100  0.45974220  0.75397955     0.42390
C2152       C  0.90735546  0.07908981  0.85815468    -0.07290
N2153       N  0.93569025  0.10089933  0.69586071    -0.26040
H2154       H  0.00734776  0.05844399  0.77604496     0.06540
N2155       N  0.85929805  0.47677815  0.76225369    -0.47260
H2156       H  0.88793513  0.07699175  0.87720254     0.06530
C2157       C  0.89170138  0.17896315  0.75497857     0.42230
C2158       C  0.79912141  0.04177689  0.82180498    -0.06790
Co2159     Co  0.86397568  0.09764815  0.79552006     0.73820
N2160       N  0.95429166  0.07140082  0.82928501    -0.46980
C2161       C  0.83304618  0.00641582  0.64183265     0.42490
N2162       N  0.80127572  0.12855189  0.76748872    -0.46970
Co2163     Co  0.93705475  0.09477323  0.75213059     0.73890
C2164       C  0.94267901  0.12565051  0.67685275    -0.07300
C2165       C  0.90573141  0.47618996  0.72993093    -0.06860
N2166       N  0.80872091  0.08310520  0.74440518    -0.26390
N2167       N  0.97204804  0.51073246  0.72024381    -0.47150
H2168       H  0.88493893  0.01261912  0.62546707     0.06500
C2169       C  0.86959213  0.16125245  0.77504934    -0.07270
Cl2170     Cl  0.88543963  0.06829412  0.74676441    -0.50270
C2171       C  0.93880114  0.06620736  0.86105580     0.42260
H2172       H  0.76295012  0.07862718  0.71737187     0.06470
N2173       N  0.91700897  0.16178831  0.74484365    -0.46990
C2174       C  0.82051163  0.29311820  0.86349543     0.42110
N2175       N  0.85188319  0.30426105  0.81989243     0.01000
C2176       C  0.85639784  0.28202324  0.63538245    -0.06880
H2177       H  0.92398174  0.21973410  0.70256683     0.06490
C2178       C  0.98746032  0.29153926  0.75472767    -0.07230
Co2179     Co  0.83262267  0.28898390  0.74475515     0.74180
N2180       N  0.88795712  0.25248105  0.71757820    -0.26410
Co2181     Co  0.90349990  0.29171775  0.69357622     0.74070
C2182       C  0.98941760  0.26066653  0.74002691     0.42210
N2183       N  0.93623541  0.33275716  0.80634325     0.00610
N2184       N  0.94833072  0.28446355  0.71775679     0.00720
N2185       N  0.81139056  0.27383491  0.66746435    -0.47260
H2186       H  0.78475713  0.27149310  0.82281296     0.06480
N2187       N  0.86239622  0.25139942  0.73905552     0.01000
N2188       N  0.91644770  0.33513726  0.67450894     0.00740
C2189       C  0.91777722  0.37797132  0.64502884     0.42350
N2190       N  0.90942698  0.33641678  0.82473220    -0.25870
C2191       C  0.78028663  0.33853563  0.73633677    -0.06790
N2192       N  0.84797281  0.30562765  0.85486002    -0.46970
N2193       N  0.90939027  0.34822452  0.64317087    -0.47190
C2194       C  0.77527463  0.36841821  0.75166470     0.42120
N2195       N  0.83251206  0.28925822  0.68710675     0.00990
N2196       N  0.88171536  0.38276959  0.78007534    -0.25890
N2197       N  0.83052175  0.28811665  0.80286765    -0.26380
N2198       N  0.90957718  0.38418940  0.76356466     0.00630
H2199       H  0.84575596  0.41531147  0.79556123     0.06520
H2200       H  0.94075576  0.40160494  0.69315028     0.06560
N2201       N  0.85951293  0.29329784  0.66886165    -0.26430
N2202       N  0.96071476  0.30404619  0.74030622    -0.26040
N2203       N  0.82001550  0.35033695  0.77178477     0.01000
C2204       C  0.88401154  0.20836429  0.74219957     0.42390
C2205       C  0.91420621  0.32714867  0.85860518    -0.07290
N2206       N  0.92956444  0.35434635  0.69720579    -0.26040
H2207       H  0.00262244  0.30189068  0.77484670     0.06540
N2208       N  0.85912079  0.22488727  0.75455344    -0.47260
H2209       H  0.89644175  0.32590792  0.87979591     0.06530
C2210       C  0.89118571  0.42913155  0.76514404     0.42230
C2211       C  0.80809673  0.28098810  0.82840100    -0.06790
Co2212     Co  0.86537452  0.34382253  0.79912671     0.73820
N2213       N  0.95852416  0.31801855  0.82514443    -0.46980
C2214       C  0.82489456  0.26845333  0.63461472     0.42490
N2215       N  0.80075404  0.37428912  0.77337642    -0.46970
Co2216     Co  0.93549160  0.34425009  0.75174537     0.73890
C2217       C  0.93139448  0.38131309  0.68108465    -0.07300
C2218       C  0.90254692  0.22580702  0.71729566    -0.06860
N2219       N  0.80835042  0.32929401  0.75008040    -0.26390
N2220       N  0.96492930  0.25879696  0.71632751    -0.47150
H2221       H  0.87633827  0.27692793  0.61763365     0.06500
C2222       C  0.86846978  0.40995721  0.78290727    -0.07270
Cl2223     Cl  0.88403781  0.31734741  0.74692787    -0.50270
C2224       C  0.94579134  0.31374598  0.85843476     0.42260
H2225       H  0.76508251  0.32566546  0.71843133     0.06470
N2226       N  0.91617165  0.41211317  0.75361495    -0.46990
C2227       C  0.68528747  0.20529180  0.87331869     0.42110
N2228       N  0.66500791  0.18903277  0.82444064     0.01000
C2229       C  0.65207637  0.24400316  0.65207685    -0.06880
H2230       H  0.58610343  0.28977649  0.72724558     0.06490
C2231       C  0.52076821  0.20758941  0.75507003    -0.07230
Co2232     Co  0.67986163  0.21918667  0.75515237     0.74180
N2233       N  0.62165887  0.25577406  0.73792912    -0.26410
Co2234     Co  0.60842510  0.21975454  0.70453920     0.74070
C2235       C  0.51716675  0.23905722  0.74134779     0.42210
N2236       N  0.58040230  0.16130458  0.80576252     0.00610
N2237       N  0.56366668  0.22108005  0.72743023     0.00720
N2238       N  0.69739094  0.24862869  0.68343925    -0.47260
H2239       H  0.71308734  0.24224927  0.84133047     0.06480
N2240       N  0.64816006  0.25571933  0.75776444     0.01000
N2241       N  0.59684573  0.17885961  0.67572846     0.00740
C2242       C  0.59390689  0.13999163  0.63911536     0.42350
N2243       N  0.60765846  0.15605792  0.82262277    -0.25870
C2244       C  0.73836033  0.17312904  0.74012316    -0.06790
N2245       N  0.66690223  0.18463645  0.85904637    -0.46970
N2246       N  0.60180286  0.17002033  0.64166161    -0.47190
C2247       C  0.74446886  0.14116442  0.74922385     0.42120
N2248       N  0.67874371  0.22792776  0.69869946     0.00990
N2249       N  0.63743133  0.12032586  0.76510415    -0.25890
N2250       N  0.68060296  0.21251851  0.81244549    -0.26380
N2251       N  0.60889511  0.11928612  0.75057549     0.00630
H2252       H  0.67795150  0.09044141  0.76625774     0.06520
H2253       H  0.57139871  0.11100830  0.68275357     0.06560
N2254       N  0.65169539  0.22520968  0.68040328    -0.26430
N2255       N  0.55092840  0.19861116  0.74547377    -0.26040
N2256       N  0.69692295  0.15448347  0.76749816     0.01000
C2257       C  0.62777326  0.29950992  0.76553894     0.42390
C2258       C  0.60327550  0.16149532  0.85799665    -0.07290
N2259       N  0.58437365  0.15676946  0.69481322    -0.26040
H2260       H  0.50341004  0.19395150  0.76939690     0.06540
N2261       N  0.65329435  0.28200707  0.77355266    -0.47260
H2262       H  0.62093779  0.16033009  0.87909222     0.06530
C2263       C  0.63360710  0.07890624  0.73404004     0.42230
C2264       C  0.69587518  0.22406239  0.84185113    -0.06790
Co2265     Co  0.65178933  0.15444923  0.79486491     0.73820
N2266       N  0.55846881  0.17334284  0.82745713    -0.46980
C2267       C  0.68146026  0.26097434  0.65493060     0.42490
N2268       N  0.71779478  0.13176042  0.76665385    -0.46970
Co2269     Co  0.57969373  0.15854247  0.74974816     0.73890
C2270       C  0.58148507  0.13228277  0.67427826    -0.07300
C2271       C  0.60712925  0.28235957  0.74177023    -0.06860
N2272       N  0.70822375  0.17919579  0.75199656    -0.26390
N2273       N  0.54480395  0.24497169  0.72441668    -0.47150
H2274       H  0.63105604  0.25039685  0.63681057     0.06500
C2275       C  0.65442691  0.09617609  0.75638438    -0.07270
Cl2276     Cl  0.63012977  0.18809198  0.75080315    -0.50270
C2277       C  0.57185873  0.17476970  0.86071077     0.42260
H2278       H  0.75445438  0.18924603  0.72785523     0.06470
N2279       N  0.60515777  0.09376856  0.73247650    -0.46990
C2280       C  0.56091217  0.42759091  0.86033841     0.42110
N2281       N  0.59666115  0.43520273  0.82029454     0.01000
C2282       C  0.61109011  0.39843377  0.63919150    -0.06880
H2283       H  0.67492944  0.33870574  0.72782166     0.06490
C2284       C  0.74181842  0.41891569  0.75892247    -0.07230
Co2285     Co  0.58225839  0.41375200  0.74574688     0.74180
N2286       N  0.63862017  0.37326814  0.73060604    -0.26410
Co2287     Co  0.65704934  0.40901236  0.69969066     0.74070
C2288       C  0.74729185  0.38845824  0.74534432     0.42210
N2289       N  0.68490667  0.45927187  0.80611492     0.00610
N2290       N  0.70158382  0.40473447  0.72612532     0.00720
N2291       N  0.56341238  0.39754040  0.66803266    -0.47260
H2292       H  0.52966189  0.40154841  0.81899836     0.06480
N2293       N  0.61070231  0.37490083  0.74798249     0.01000
N2294       N  0.67322175  0.44952176  0.67368919     0.00740
C2295       C  0.68277269  0.48799852  0.63955454     0.42350
N2296       N  0.65745973  0.46353962  0.82313657    -0.25870
C2297       C  0.53019933  0.46473636  0.73156040    -0.06790
N2298       N  0.58859032  0.44068452  0.85373379    -0.46970
N2299       N  0.67085762  0.45931692  0.63955754    -0.47190
C2300       C  0.52530466  0.99514048  0.74647766     0.42120
N2301       N  0.58578260  0.40988583  0.68885136     0.00990
N2302       N  0.63198964  0.00650629  0.76940021    -0.25890
N2303       N  0.57695274  0.41727608  0.80305934    -0.26380
N2304       N  0.65980399  0.00631764  0.75291064     0.00630
H2305       H  0.59274073  0.03797501  0.77181508     0.06520
H2306       H  0.70424263  0.01484305  0.68600948     0.06560
N2307       N  0.61407623  0.40970369  0.67257718    -0.26430
N2308       N  0.71297124  0.42691179  0.74570874    -0.26040
N2309       N  0.57005242  0.47684665  0.76635476     0.01000
C2310       C  0.62981254  0.33189033  0.76244587     0.42390
C2311       C  0.66044209  0.45295216  0.85692784    -0.07290
N2312       N  0.68603951  0.47019181  0.69489735    -0.26040
H2313       H  0.75709027  0.43279319  0.77560930     0.06540
N2314       N  0.60418363  0.35015074  0.76642117    -0.47260
H2315       H  0.64155805  0.45093723  0.87670218     0.06530
C2316       C  0.63598555  0.04691458  0.73654815     0.42230
C2317       C  0.55223880  0.41182594  0.82626391    -0.06790
Co2318     Co  0.61432999  0.47102733  0.79510751     0.73820
N2319       N  0.70568002  0.44327442  0.82571262    -0.46980
C2320       C  0.57778254  0.38994705  0.63637731     0.42490
N2321       N  0.55073946  0.00067800  0.76797781    -0.46970
Co2322     Co  0.68688710  0.46635893  0.75040901     0.73890
C2323       C  0.69377007  0.49436749  0.67560551    -0.07300
C2324       C  0.65224057  0.34677179  0.73822219    -0.06860
N2325       N  0.55842988  0.45532586  0.74535442    -0.26390
N2326       N  0.72140934  0.38125728  0.72504881    -0.47150
H2327       H  0.63087575  0.39150420  0.62211994     0.06500
C2328       C  0.61594973  0.03142484  0.76159347    -0.07270
Cl2329     Cl  0.63493056  0.44002280  0.74730298    -0.50270
C2330       C  0.69161272  0.43848616  0.85816200     0.42260
H2331       H  0.51420274  0.45134090  0.71512836     0.06470
N2332       N  0.66371303  0.03114679  0.73353210    -0.46990
C2333       C  0.69804674  0.04904342  0.38828179     0.42110
N2334       N  0.70924174  0.01261929  0.42423849     0.01000
C2335       C  0.72109032  0.02376268  0.60688119    -0.06880
H2336       H  0.78975576  0.10326838  0.51845329     0.06490
C2337       C  0.85288646  0.02947630  0.48288978    -0.07230
Co2338     Co  0.69544050  0.03131109  0.49970906     0.74180
N2339       N  0.75027706  0.07231463  0.51690992    -0.26410
Co2340     Co  0.76747073  0.03742859  0.54417289     0.74070
C2341       C  0.85758788  0.06007383  0.49728293     0.42210
N2342       N  0.79734245  0.47487845  0.43915160     0.00610
N2343       N  0.81223193  0.04236133  0.51625686     0.00720
N2344       N  0.67670744  0.01057990  0.57625020    -0.47260
H2345       H  0.67628171  0.07761661  0.43346831     0.06480
N2346       N  0.72249649  0.07202138  0.50043088     0.01000
N2347       N  0.78375862  0.50111534  0.57004469     0.00740
C2348       C  0.81579975  0.49102453  0.61296249     0.42350
N2349       N  0.76901649  0.47558066  0.42321983    -0.25870
C2350       C  0.64356385  0.48024593  0.51127089    -0.06790
N2351       N  0.71100152  0.02091883  0.38965900    -0.46970
N2352       N  0.78919376  0.50516406  0.60435764    -0.47190
C2353       C  0.64197255  0.44840650  0.50078141     0.42120
N2354       N  0.69716977  0.02595683  0.55550124     0.00990
N2355       N  0.74570652  0.43769747  0.48070270    -0.25890
N2356       N  0.69591472  0.03371784  0.44446081    -0.26380
N2357       N  0.77313331  0.43948114  0.49860313     0.00630
H2358       H  0.71066679  0.40225941  0.47543467     0.06520
H2359       H  0.84870119  0.46413721  0.57367766     0.06560
N2360       N  0.72424068  0.03179147  0.57222090    -0.26430
N2361       N  0.82423952  0.02045733  0.49603107    -0.26040
N2362       N  0.68420271  0.46834905  0.47819765     0.01000
C2363       C  0.74710161  0.11225453  0.48288846     0.42390
C2364       C  0.77105046  0.46439436  0.38981679    -0.07290
N2365       N  0.80387414  0.48271626  0.55394759    -0.26040
H2366       H  0.86924323  0.01572681  0.46723468     0.06540
N2367       N  0.71906924  0.09664133  0.48033352    -0.47260
H2368       H  0.75070081  0.45761907  0.37367062     0.06530
C2369       C  0.75471484  0.39577200  0.51123547     0.42230
C2370       C  0.68716056  0.05691405  0.42401814    -0.06790
Co2371     Co  0.72691521  0.47349738  0.45070329     0.73820
N2372       N  0.81880823  0.46134882  0.41799654    -0.46980
C2373       C  0.69065981  0.00829780  0.60908134     0.42490
N2374       N  0.66736680  0.44315716  0.47935118    -0.46970
Co2375     Co  0.80056116  0.47884710  0.49647270     0.73890
C2376       C  0.82637826  0.47571300  0.57909500    -0.07300
C2377       C  0.76671505  0.09673603  0.50818983    -0.06860
N2378       N  0.67115520  0.49039406  0.49677863    -0.26390
N2379       N  0.83163219  0.06608871  0.51795228    -0.47150
H2380       H  0.73960984  0.02401886  0.62705159     0.06500
C2381       C  0.73266205  0.41074063  0.48696125    -0.07270
Cl2382     Cl  0.74780531  0.00535101  0.49733189    -0.50270
C2383       C  0.80364724  0.45430457  0.38660334     0.42260
H2384       H  0.62714893  0.49319343  0.52783409     0.06470
N2385       N  0.77992888  0.41435520  0.51627943    -0.46990
C2386       C  0.79976550  0.20678175  0.38696306     0.42110
N2387       N  0.79048003  0.24382935  0.42369157     0.01000
C2388       C  0.78304324  0.23105221  0.60775592    -0.06880
H2389       H  0.70813243  0.15468484  0.51904878     0.06490
C2390       C  0.64736755  0.23426477  0.48951139    -0.07230
Co2391     Co  0.80533310  0.22349337  0.49887366     0.74180
N2392       N  0.74857935  0.18456765  0.51638112    -0.26410
Co2393     Co  0.73379566  0.21909841  0.54577886     0.74070
C2394       C  0.64213925  0.20214100  0.49919037     0.42210
N2395       N  0.70608713  0.28960069  0.44713993     0.00610
N2396       N  0.68860836  0.21757170  0.51868377     0.00720
N2397       N  0.82706915  0.24104320  0.57512508    -0.47260
H2398       H  0.81983598  0.17733409  0.43196411     0.06480
N2399       N  0.77607977  0.18408755  0.49929834     0.01000
N2400       N  0.71929972  0.25377597  0.57466822     0.00740
C2401       C  0.69846353  0.27132957  0.62286012     0.42350
N2402       N  0.73326663  0.28786938  0.42856504    -0.25870
C2403       C  0.86260876  0.27184491  0.50745772    -0.06790
N2404       N  0.78913987  0.23595976  0.38877043    -0.46970
N2405       N  0.71673571  0.24999696  0.60942126    -0.47190
C2406       C  0.86752392  0.30278052  0.49350199     0.42120
N2407       N  0.80509358  0.22718976  0.55513451     0.00990
N2408       N  0.76261497  0.31976118  0.48570748    -0.25890
N2409       N  0.80256376  0.22190230  0.44352502    -0.26380
N2410       N  0.73600304  0.31959928  0.50557998     0.00630
H2411       H  0.79844003  0.35356607  0.47559242     0.06520
H2412       H  0.67124808  0.30768794  0.58936510     0.06560
N2413       N  0.77816802  0.22278815  0.57307838    -0.26430
N2414       N  0.67694675  0.24163470  0.50208382    -0.26040
N2415       N  0.82182654  0.28565787  0.47610234     0.01000
C2416       C  0.74985847  0.14451441  0.48208973     0.42390
C2417       C  0.73087392  0.30420774  0.39815151    -0.07290
N2418       N  0.70388522  0.27706623  0.56175175    -0.26040
H2419       H  0.63111709  0.24953463  0.47600298     0.06540
N2420       N  0.77829345  0.15944589  0.47898841    -0.47260
H2421       H  0.75087527  0.31066134  0.38119960     0.06530
C2422       C  0.75662843  0.36329322  0.51394556     0.42230
C2423       C  0.80951575  0.19834835  0.42282403    -0.06790
Co2424     Co  0.77704280  0.28395435  0.45257157     0.73820
N2425       N  0.68537313  0.30744089  0.43035506    -0.46980
C2426       C  0.81450639  0.24475162  0.60863196     0.42490
N2427       N  0.84114323  0.30934632  0.47433350    -0.46970
Co2428     Co  0.70470796  0.28242858  0.50408161     0.73890
C2429       C  0.68841802  0.28944204  0.59065397    -0.07300
C2430       C  0.73111106  0.16072026  0.50780630    -0.06860
N2431       N  0.83339188  0.26325469  0.49523547    -0.26390
N2432       N  0.66856260  0.19421699  0.51796324    -0.47150
H2433       H  0.76567561  0.23160144  0.62929126     0.06500
C2434       C  0.77717389  0.34625282  0.48982636    -0.07270
Cl2435     Cl  0.75472048  0.25241170  0.49966492    -0.50270
C2436       C  0.69978617  0.31846832  0.40008091     0.42260
H2437       H  0.87855333  0.25822117  0.52368921     0.06470
N2438       N  0.73098364  0.34580705  0.52175977    -0.46990
C2439       C  0.96339522  0.17782739  0.38618698     0.42110
N2440       N  0.96487685  0.13879637  0.42271697     0.01000
C2441       C  0.97362158  0.15141640  0.60542663    -0.06880
H2442       H  0.54377767  0.22852950  0.51420291     0.06490
C2443       C  0.60720969  0.15142171  0.48572150    -0.07230
Co2444     Co  0.94795619  0.15884538  0.49777074     0.74180
N2445       N  0.50385303  0.19805895  0.51374409    -0.26410
Co2446     Co  0.52015301  0.16407801  0.54234149     0.74070
C2447       C  0.61195415  0.18322286  0.49741016     0.42210
N2448       N  0.54774649  0.09248401  0.44371507     0.00610
N2449       N  0.56480475  0.16705352  0.51389805     0.00720
N2450       N  0.92797906  0.14041202  0.57576380    -0.47260
H2451       H  0.94001444  0.20680544  0.42939212     0.06480
N2452       N  0.97551372  0.19851903  0.49891214     0.01000
N2453       N  0.53727881  0.13071232  0.57157122     0.00740
C2454       C  0.57534812  0.12777264  0.60913236     0.42350
N2455       N  0.52021465  0.09368441  0.42609380    -0.25870
C2456       C  0.89090699  0.11143794  0.50598798    -0.06790
N2457       N  0.97066782  0.14767270  0.38875664    -0.46970
N2458       N  0.54753976  0.14059910  0.60270526    -0.47190
C2459       C  0.88572773  0.08052537  0.49255297     0.42120
N2460       N  0.94904141  0.15429977  0.55422661     0.00990
N2461       N  0.99275514  0.06318622  0.48547708    -0.25890
N2462       N  0.95244627  0.16094588  0.44196251    -0.26380
N2463       N  0.52000015  0.06421538  0.50417491     0.00630
H2464       H  0.95734299  0.02856115  0.47775144     0.06520
H2465       H  0.60327514  0.09508142  0.57178103     0.06560
N2466       N  0.97660127  0.15928245  0.57062302    -0.26430
N2467       N  0.57711994  0.14359236  0.49645211    -0.26040
N2468       N  0.93219281  0.09661373  0.47556822     0.01000
C2469       C  0.99984897  0.23853390  0.48101076     0.42390
C2470       C  0.52122884  0.07509317  0.39735909    -0.07290
N2471       N  0.55562104  0.11012825  0.55646646    -0.26040
H2472       H  0.62450084  0.13630057  0.47355319     0.06540
N2473       N  0.97154746  0.22354822  0.47993909    -0.47260
H2474       H  0.50044843  0.06776266  0.38233101     0.06530
C2475       C  0.50060318  0.02020943  0.51440719     0.42230
C2476       C  0.95006288  0.18543859  0.42123396    -0.06790
Co2477     Co  0.97730142  0.09826940  0.45159775     0.73820
N2478       N  0.56713565  0.07247227  0.42834400    -0.46980
C2479       C  0.94208782  0.13814229  0.60867993     0.42490
N2480       N  0.91243556  0.07320464  0.47391787    -0.46970
Co2481     Co  0.55072279  0.10213496  0.49981389     0.73890
C2482       C  0.58127234  0.10661180  0.57877736    -0.07300
C2483       C  0.52045160  0.22222300  0.50449376    -0.06860
N2484       N  0.92043952  0.11933006  0.49403420    -0.26390
N2485       N  0.58479434  0.19038043  0.51535610    -0.47150
H2486       H  0.99271710  0.15028905  0.62490964     0.06500
C2487       C  0.97888715  0.03648438  0.49086567    -0.07270
Cl2488     Cl  0.99929536  0.13064711  0.49761576    -0.50270
C2489       C  0.55160675  0.05965305  0.39990300     0.42260
H2490       H  0.87490645  0.12560401  0.52159293     0.06470
N2491       N  0.52607998  0.03834454  0.52066720    -0.46990
C2492       C  0.55388715  0.33119631  0.38787360     0.42110
N2493       N  0.54263789  0.36820232  0.42408165     0.01000
C2494       C  0.53195679  0.35848167  0.60762453    -0.06880
H2495       H  0.96039319  0.27936418  0.51927121     0.06490
C2496       C  0.89972285  0.35499514  0.48477899    -0.07230
Co2497     Co  0.55628718  0.34856337  0.49975717     0.74180
N2498       N  0.00041372  0.30981753  0.51733084    -0.26410
Co2499     Co  0.98436373  0.34503120  0.54554085     0.74070
C2500       C  0.89491341  0.32403624  0.49868265     0.42210
N2501       N  0.95697460  0.41285099  0.44314486     0.00610
N2502       N  0.93997114  0.34167137  0.51793281     0.00720
N2503       N  0.57790850  0.36394777  0.57646155    -0.47260
H2504       H  0.57476700  0.30275303  0.43336367     0.06480
N2505       N  0.52787515  0.30965472  0.50004138     0.01000
N2506       N  0.96841762  0.38053754  0.57275140     0.00740
C2507       C  0.93613540  0.39133641  0.61547594     0.42350
N2508       N  0.98477896  0.41165741  0.42578739    -0.25870
C2509       C  0.61079080  0.39732422  0.51117225    -0.06790
N2510       N  0.54121636  0.35968291  0.38934254    -0.46970
N2511       N  0.96162783  0.37540869  0.60658366    -0.47190
C2512       C  0.61372629  0.42903017  0.50037831     0.42120
N2513       N  0.55517479  0.35203775  0.55589523     0.00990
N2514       N  0.51075406  0.44458033  0.48436873    -0.25890
N2515       N  0.55549524  0.34684191  0.44424839    -0.26380
N2516       N  0.98344078  0.44361961  0.50292969     0.00630
H2517       H  0.54613488  0.47943287  0.47705166     0.06520
H2518       H  0.90591543  0.42121406  0.57688519     0.06560
N2519       N  0.52765935  0.34970054  0.57316843    -0.26430
N2520       N  0.92835539  0.36402687  0.49815402    -0.26040
N2521       N  0.57040843  0.41083419  0.47885829     0.01000
C2522       C  0.50228939  0.27049291  0.48208452     0.42390
C2523       C  0.98360137  0.42923850  0.39623396    -0.07290
N2524       N  0.94979551  0.40042097  0.55714256    -0.26040
H2525       H  0.88347992  0.36880442  0.46917416     0.06540
N2526       N  0.53045146  0.28554308  0.47909395    -0.47260
H2527       H  0.00435601  0.43652601  0.38098991     0.06530
C2528       C  0.00265077  0.48750879  0.51371425     0.42230
C2529       C  0.56413832  0.32351195  0.42378688    -0.06790
Co2530     Co  0.52732176  0.40849656  0.45226338     0.73820
N2531       N  0.93712823  0.43161059  0.42646579    -0.46980
C2532       C  0.56475996  0.36882533  0.60938752     0.42490
N2533       N  0.58829083  0.43533372  0.47973889    -0.46970
Co2534     Co  0.95376961  0.40551739  0.49993591     0.73890
C2535       C  0.92730704  0.40816935  0.58219357    -0.07300
C2536       C  0.98337606  0.28580591  0.50846536    -0.06860
N2537       N  0.58254110  0.38831468  0.49726019    -0.26390
N2538       N  0.92062110  0.31797623  0.51922392    -0.47150
H2539       H  0.51372372  0.36113707  0.62805691     0.06500
C2540       C  0.52438141  0.47145106  0.48974971    -0.07270
Cl2541     Cl  0.00490434  0.37693969  0.49855562    -0.50270
C2542       C  0.95270779  0.44397252  0.39772629     0.42260
H2543       H  0.62679758  0.38374508  0.52738702     0.06470
N2544       N  0.97722522  0.46932251  0.51977121    -0.46990
C2545       C  0.94674663  0.69148323  0.35525976     0.42110
N2546       N  0.90773312  0.68987233  0.31840491     0.01000
C2547       C  0.89468842  0.71499216  0.13502954    -0.06880
H2548       H  0.82971339  0.77829322  0.21332344     0.06490
C2549       C  0.76315464  0.70335303  0.25515081    -0.07230
Co2550     Co  0.92287480  0.70599229  0.24247735     0.74180
N2551       N  0.86661452  0.74508595  0.22167047    -0.26410
Co2552     Co  0.84806546  0.70829008  0.19507804     0.74070
C2553       C  0.75812556  0.73360700  0.24065108     0.42210
N2554       N  0.81900558  0.66606531  0.30545066     0.00610
N2555       N  0.80315517  0.71534746  0.22078391     0.00720
N2556       N  0.94183438  0.71886423  0.16424575    -0.47260
H2557       H  0.97940012  0.71246686  0.31119936     0.06480
N2558       N  0.89369424  0.74479417  0.24069324     0.01000
N2559       N  0.83175410  0.66724368  0.17274548     0.00740
C2560       C  0.82294195  0.62854809  0.13917989     0.42350
N2561       N  0.84667427  0.66354078  0.32243008    -0.25870
C2562       C  0.97673914  0.65660493  0.23607450    -0.06790
N2563       N  0.91665403  0.68342619  0.35131553    -0.46970
N2564       N  0.83439743  0.65713938  0.13896377    -0.47190
C2565       C  0.98233147  0.62739110  0.25342249     0.42120
N2566       N  0.91966295  0.70653753  0.18547628     0.00990
N2567       N  0.87066908  0.61575656  0.27632695    -0.25890
N2568       N  0.92889572  0.70507296  0.29968602    -0.26380
N2569       N  0.84309259  0.61494428  0.25934329     0.00630
H2570       H  0.90609008  0.58293301  0.29127273     0.06520
H2571       H  0.80235912  0.60150962  0.18673693     0.06560
N2572       N  0.89155556  0.70516491  0.16894421    -0.26430
N2573       N  0.79154337  0.69418691  0.24172932    -0.26040
N2574       N  0.93474607  0.64407651  0.26780133     0.01000
C2575       C  0.87280063  0.78777047  0.24923207     0.42390
C2576       C  0.84380949  0.67637841  0.35498363    -0.07290
N2577       N  0.81922080  0.64696592  0.19478806    -0.26040
H2578       H  0.74817386  0.69063241  0.27350318     0.06540
N2579       N  0.89835820  0.77053763  0.25784313    -0.47260
H2580       H  0.86259950  0.67956086  0.37452778     0.06530
C2581       C  0.86105414  0.57022337  0.26005435     0.42230
C2582       C  0.95571573  0.70644086  0.32071085    -0.06790
Co2583     Co  0.88973649  0.65295269  0.29602137     0.73820
N2584       N  0.79759823  0.68210526  0.32433538    -0.46980
C2585       C  0.92762203  0.72467550  0.13213406     0.42490
N2586       N  0.95540029  0.62148041  0.27313182    -0.46970
Co2587     Co  0.81729046  0.65482083  0.25049275     0.73890
C2588       C  0.81219875  0.62212479  0.17584975    -0.07300
C2589       C  0.85224603  0.77160177  0.22520472    -0.06860
N2590       N  0.94687849  0.66484993  0.24600845    -0.26390
N2591       N  0.78394045  0.73946266  0.21928789    -0.47150
H2592       H  0.87482585  0.72107966  0.11776489     0.06500
C2593       C  0.88348930  0.58861901  0.27871191    -0.07270
Cl2594     Cl  0.86992442  0.68027739  0.24508377    -0.50270
C2595       C  0.81226882  0.68982024  0.35558104     0.42260
H2596       H  0.99351703  0.67054805  0.22129554     0.06470
N2597       N  0.83637651  0.58735229  0.24817321    -0.46990
C2598       C  0.76348685  0.48309393  0.24132346     0.42110
N2599       N  0.80661940  0.96152579  0.22153080     0.01000
C2600       C  0.88990382  0.83642970  0.27947330    -0.06880
H2601       H  0.86348648  0.91946253  0.38111330     0.06490
C2602       C  0.94470895  0.97059498  0.33206633    -0.07230
Co2603     Co  0.82183484  0.90174644  0.25329746     0.74180
N2604       N  0.84955819  0.90786624  0.32639180    -0.26410
Co2605     Co  0.89303006  0.90151018  0.29899411     0.74070
C2606       C  0.93504281  0.95553393  0.36658619     0.42210
N2607       N  0.89018236  0.49719151  0.24630505     0.00610
N2608       N  0.90755204  0.93900575  0.32244835     0.00720
N2609       N  0.84165637  0.83479636  0.25148538    -0.47260
H2610       H  0.75128211  0.94126277  0.27600452     0.06480
N2611       N  0.82228260  0.91107550  0.30880441     0.01000
N2612       N  0.93741115  0.89732685  0.26955146     0.00740
C2613       C  0.98209308  0.88098836  0.24668133     0.42350
N2614       N  0.86470092  0.49588937  0.22483457    -0.25870
C2615       C  0.82617547  0.86749225  0.18016345    -0.06790
N2616       N  0.78868084  0.48616774  0.21896769    -0.46970
N2617       N  0.95702896  0.87358355  0.26840763    -0.47190
C2618       C  0.83872245  0.87261810  0.14377676     0.42120
N2619       N  0.84841765  0.86238750  0.26234195     0.00990
N2620       N  0.89465718  0.96023016  0.17281019    -0.25890
N2621       N  0.79484681  0.94137114  0.24373601    -0.26380
N2622       N  0.92099495  0.96476155  0.19186764     0.00630
H2623       H  0.87482970  0.98289738  0.12664562     0.06520
H2624       H  0.99091812  0.92605356  0.21725899     0.06560
N2625       N  0.87653076  0.86355011  0.27803926    -0.26430
N2626       N  0.92491744  0.95931762  0.30613681    -0.26040
N2627       N  0.84027986  0.91410912  0.17615181     0.01000
C2628       C  0.81397789  0.93075976  0.36110387     0.42390
C2629       C  0.84939891  0.52217303  0.22525963    -0.07290
N2630       N  0.94821185  0.92010576  0.24975292    -0.26040
H2631       H  0.96480124  0.98544757  0.32717317     0.06540
N2632       N  0.80041242  0.92550992  0.32844117    -0.47260
H2633       H  0.82822676  0.52813834  0.21012992     0.06530
C2634       C  0.92396142  0.99609461  0.14648946     0.42230
C2635       C  0.76680466  0.95249932  0.25686198    -0.06790
Co2636     Co  0.85129853  0.95728482  0.19781969     0.73820
N2637       N  0.89298908  0.52370840  0.26201679    -0.46980
C2638       C  0.86690111  0.81776693  0.26165679     0.42490
N2639       N  0.84685303  0.90252330  0.14375412    -0.46970
Co2640     Co  0.92191092  0.96065407  0.24860748     0.73890
C2641       C  0.97625001  0.91195311  0.23444462    -0.07300
C2642       C  0.84555217  0.91774323  0.36038111    -0.06860
N2643       N  0.82777035  0.89377011  0.19794401    -0.26390
N2644       N  0.91211632  0.93701078  0.35713800    -0.47150
H2645       H  0.91276823  0.83082058  0.29143858     0.06500
C2646       C  0.89559386  0.97749531  0.14283746    -0.07270
Cl2647     Cl  0.87225238  0.93022764  0.24934666    -0.50270
C2648       C  0.86759535  0.53977939  0.25020040     0.42260
H2649       H  0.81720389  0.84660073  0.19114937     0.06470
N2650       N  0.93902790  0.98571382  0.17647632    -0.46990
C2651       C  0.51389957  0.61122584  0.25690941     0.42110
N2652       N  0.55036939  0.57643468  0.25507185     0.01000
C2653       C  0.70530300  0.56846853  0.32107921    -0.06880
H2654       H  0.67811792  0.66092003  0.21484234     0.06490
C2655       C  0.65361273  0.58026115  0.13890616    -0.07230
Co2656     Co  0.61192359  0.59400240  0.29516908     0.74180
N2657       N  0.65545315  0.62731144  0.24891217    -0.26410
Co2658     Co  0.68077780  0.58588768  0.24486346     0.74070
C2659       C  0.66552707  0.61192502  0.13983495     0.42210
N2660       N  0.59993787  0.53213931  0.17687199     0.00610
N2661       N  0.67386224  0.58933989  0.19074538     0.00720
N2662       N  0.66111134  0.57983266  0.35317898    -0.47260
H2663       H  0.54779254  0.64345066  0.28717081     0.06480
N2664       N  0.62761361  0.62777376  0.26550307     0.01000
N2665       N  0.70446327  0.54329546  0.23861627     0.00740
C2666       C  0.73492920  0.50342287  0.24011799     0.42350
N2667       N  0.57312823  0.52988590  0.19595974    -0.25870
C2668       C  0.59585994  0.56218464  0.35949482    -0.06790
N2669       N  0.52000186  0.58247786  0.24646118    -0.46970
N2670       N  0.73314072  0.53322913  0.24949145    -0.47190
C2671       C  0.56906527  0.54492795  0.37011995     0.42120
N2672       N  0.65745252  0.58785327  0.31910252     0.00990
N2673       N  0.60130206  0.99565363  0.25303892    -0.25890
N2674       N  0.56474414  0.59905044  0.27182260    -0.26380
N2675       N  0.62691564  0.99326912  0.23189425     0.00630
H2676       H  0.57777437  0.96453458  0.28915577     0.06520
H2677       H  0.69885023  0.97586844  0.20786478     0.06560
N2678       N  0.68321270  0.58171580  0.29980628    -0.26430
N2679       N  0.65916842  0.56839764  0.17198608    -0.26040
N2680       N  0.57656606  0.53956063  0.31220596     0.01000
C2681       C  0.62758938  0.66942173  0.23808802     0.42390
C2682       C  0.55133613  0.51650330  0.17401511    -0.07290
N2683       N  0.68856876  0.52220250  0.22150519    -0.26040
H2684       H  0.64082741  0.56913182  0.11731691     0.06540
N2685       N  0.61055188  0.65213020  0.26008924    -0.47260
H2686       H  0.52834907  0.50785254  0.18267476     0.06530
C2687       C  0.62407288  0.95099738  0.25925242     0.42230
C2688       C  0.54363876  0.62219224  0.27367680    -0.06790
Co2689     Co  0.57419463  0.53484785  0.25392584     0.73820
N2690       N  0.59778600  0.52154466  0.14369079    -0.46980
C2691       C  0.69012665  0.56706687  0.35645702     0.42490
N2692       N  0.55700000  0.53167832  0.33932262    -0.46970
Co2693     Co  0.64375678  0.52891259  0.19981609     0.73890
C2694       C  0.70578208  0.99666466  0.22084158    -0.07300
C2695       C  0.65842434  0.65405872  0.23204283    -0.06860
N2696       N  0.59713142  0.55937810  0.32417387    -0.26390
N2697       N  0.67760623  0.61480632  0.17310876    -0.47150
H2698       H  0.72781820  0.55884318  0.31236748     0.06500
C2699       C  0.59720064  0.96967882  0.27075498    -0.07270
Cl2700     Cl  0.62745543  0.56084889  0.24828982    -0.50270
C2701       C  0.56831801  0.51086959  0.13933907     0.42260
H2702       H  0.60554365  0.58137765  0.37384450     0.06470
N2703       N  0.64087321  0.96669854  0.23463926    -0.46990
C2704       C  0.73037725  0.75401007  0.24926414     0.42110
N2705       N  0.69793136  0.79204032  0.25312207     0.01000
C2706       C  0.54556543  0.80699883  0.32171597    -0.06880
H2707       H  0.57173731  0.70981304  0.21587302     0.06490
C2708       C  0.59895251  0.78818832  0.13912732    -0.07230
Co2709     Co  0.63749216  0.77679819  0.29661406     0.74180
N2710       N  0.59376020  0.74273013  0.25130538    -0.26410
Co2711     Co  0.56916786  0.78379554  0.24574975     0.74070
C2712       C  0.58887557  0.75596445  0.14056298     0.42210
N2713       N  0.65032584  0.83896538  0.17609994     0.00610
N2714       N  0.57740101  0.77935125  0.19082268     0.00720
N2715       N  0.58972658  0.79708922  0.35387281    -0.47260
H2716       H  0.69731433  0.72465762  0.28418355     0.06480
N2717       N  0.62105414  0.74204372  0.26862088     0.01000
N2718       N  0.54471475  0.82471550  0.23802772     0.00740
C2719       C  0.51068937  0.86166308  0.23847393     0.42350
N2720       N  0.67698353  0.83951875  0.19541416    -0.25870
C2721       C  0.65596485  0.80975416  0.35981610    -0.06790
N2722       N  0.72610880  0.78325843  0.23933757    -0.46970
N2723       N  0.51547368  0.83277318  0.24919718    -0.47190
C2724       C  0.68132169  0.82935047  0.36905659     0.42120
N2725       N  0.59237570  0.78549132  0.32101423     0.00990
N2726       N  0.64800425  0.87418516  0.25195179    -0.25890
N2727       N  0.68342993  0.77041191  0.27161357    -0.26380
N2728       N  0.62191724  0.87642074  0.23155578     0.00630
H2729       H  0.67151764  0.90530992  0.28798395     0.06520
H2730       H  0.54533271  0.89179907  0.20632541     0.06560
N2731       N  0.56658890  0.79076934  0.30145038    -0.26430
N2732       N  0.59174809  0.80047564  0.17177925    -0.26040
N2733       N  0.67361280  0.83137809  0.31101101     0.01000
C2734       C  0.62175896  0.70106045  0.23939233     0.42390
C2735       C  0.70017771  0.85166152  0.17421712    -0.07290
N2736       N  0.55933991  0.84636561  0.22040455    -0.26040
H2737       H  0.61223107  0.79935463  0.11786132     0.06540
N2738       N  0.63815939  0.71768647  0.26273782    -0.47260
H2739       H  0.72357939  0.85867773  0.18348964     0.06530
C2740       C  0.62468220  0.91855504  0.25925515     0.42230
C2741       C  0.70239355  0.74585770  0.27099705    -0.06790
Co2742     Co  0.67536235  0.83476729  0.25274791     0.73820
N2743       N  0.65392387  0.85003275  0.14321811    -0.46980
C2744       C  0.56151026  0.81164558  0.35636739     0.42490
N2745       N  0.69247431  0.84180717  0.33737370    -0.46970
Co2746     Co  0.60557898  0.84081504  0.19911875     0.73890
C2747       C  0.53978337  0.87052766  0.21910666    -0.07300
C2748       C  0.59102677  0.71632195  0.23368740    -0.06860
N2749       N  0.65412085  0.81121177  0.32437099    -0.26390
N2750       N  0.57551387  0.75345558  0.17351894    -0.47150
H2751       H  0.52347887  0.81696434  0.31261203     0.06500
C2752       C  0.65199589  0.90010518  0.26982431    -0.07270
Cl2753     Cl  0.62209313  0.80919531  0.24834305    -0.50270
C2754       C  0.68440786  0.85874920  0.13953941     0.42260
H2755       H  0.64654128  0.79129974  0.37575965     0.06470
N2756       N  0.60762250  0.90279693  0.23494862    -0.46990
C2757       C  0.81592044  0.60975803  0.10725318     0.42110
N2758       N  0.78429122  0.59011021  0.06785228     0.01000
C2759       C  0.77942534  0.60445500  0.88727700    -0.06880
H2760       H  0.83080739  0.70332962  0.96375785     0.06490
C2761       C  0.72605447  0.71059201  0.02513720    -0.07230
Co2762     Co  0.80882878  0.59328127  0.99298144     0.74180
N2763       N  0.81813678  0.65703296  0.97406068    -0.26410
Co2764     Co  0.77349428  0.65409746  0.95167457     0.74070
C2765       C  0.75307074  0.72993199  0.01526203     0.42210
N2766       N  0.70240952  0.63710389  0.05926576     0.00610
N2767       N  0.75759683  0.68788718  0.98732460     0.00720
N2768       N  0.80272672  0.56765778  0.91844295    -0.47260
H2769       H  0.85479259  0.61844960  0.06436347     0.06480
N2770       N  0.83306216  0.63439959  0.98924436     0.01000
N2771       N  0.73003476  0.65743737  0.92783514     0.00740
C2772       C  0.70149820  0.69343418  0.90502089     0.42350
N2773       N  0.72275155  0.61739311  0.07230236    -0.25870
C2774       C  0.78726180  0.52658308  0.97563785    -0.06790
N2775       N  0.78667004  0.59788145  0.10226969    -0.46970
N2776       N  0.72880008  0.67773430  0.90159840    -0.47190
C2777       C  0.75656058  0.51096914  0.98039116     0.42120
N2778       N  0.80104081  0.59256628  0.93782492     0.00990
N2779       N  0.69507899  0.57980276  0.01634139    -0.25890
N2780       N  0.81062698  0.59596127  0.04935614    -0.26380
N2781       N  0.68077050  0.60220672  0.99900093     0.00630
H2782       H  0.68061003  0.53434932  0.02946827     0.06520
H2783       H  0.66291751  0.68654832  0.94828957     0.06560
N2784       N  0.78677106  0.61492428  0.92075609    -0.26430
N2785       N  0.73113800  0.68478710  0.00711105    -0.26040
N2786       N  0.75661127  0.55110554  0.01141588     0.01000
C2787       C  0.86559121  0.67183525  0.99279893     0.42390
C2788       C  0.71570827  0.61030263  0.10588317    -0.07290
N2789       N  0.70361047  0.65674576  0.94767394    -0.26040
H2790       H  0.70546044  0.71559149  0.04192718     0.06540
N2791       N  0.86239962  0.64197653  0.99999397    -0.47260
H2792       H  0.72431906  0.59016107  0.11923187     0.06530
C2793       C  0.64730583  0.56473883  0.99662988     0.42230
C2794       C  0.83208642  0.60861624  0.07203900    -0.06790
Co2795     Co  0.74006962  0.58436195  0.04206591     0.73820
N2796       N  0.67803644  0.64108221  0.08218153    -0.46980
C2797       C  0.78926793  0.57203642  0.88591809     0.42490
N2798       N  0.73968262  0.52704226  0.00404885    -0.46970
Co2799     Co  0.70350770  0.64529294  0.00296703     0.73890
C2800       C  0.68401350  0.67820577  0.93447923    -0.07300
C2801       C  0.83663347  0.68156273  0.97512455    -0.06860
N2802       N  0.78417097  0.55230541  0.99460569    -0.26390
N2803       N  0.77102626  0.71457497  0.99125291    -0.47150
H2804       H  0.76618164  0.61689764  0.86709732     0.06500
C2805       C  0.67576996  0.55558922  0.01624330    -0.07270
Cl2806     Cl  0.75620942  0.61939663  0.99716707    -0.50270
C2807       C  0.68591265  0.62487740  0.11207065     0.42260
H2808       H  0.80691589  0.52075751  0.95780031     0.06470
N2809       N  0.65176338  0.59421269  0.98712167    -0.46990
C2810       C  0.69416809  0.87899110  0.10962822     0.42110
N2811       N  0.72535268  0.89982189  0.07041295     0.01000
C2812       C  0.71637769  0.88690801  0.88727717    -0.06880
H2813       H  0.67134819  0.78991362  0.96249032     0.06490
C2814       C  0.78046628  0.78162421  0.02324949    -0.07230
Co2815     Co  0.69731952  0.89821350  0.99654470     0.74180
N2816       N  0.68641088  0.83489084  0.97649178    -0.26410
Co2817     Co  0.73087850  0.83835007  0.95188817     0.74070
C2818       C  0.75288311  0.76261304  0.01497382     0.42210
N2819       N  0.80564321  0.85287500  0.05860705     0.00610
N2820       N  0.74848474  0.80423804  0.98604892     0.00720
N2821       N  0.69106214  0.92192471  0.92111313    -0.47260
H2822       H  0.65349618  0.87500153  0.06842520     0.06480
N2823       N  0.67268077  0.85710386  0.99418365     0.01000
N2824       N  0.77416408  0.83671533  0.92588036     0.00740
C2825       C  0.80536085  0.80797776  0.89493199     0.42350
N2826       N  0.78645151  0.87345972  0.07182539    -0.25870
C2827       C  0.72085280  0.96378820  0.97616099    -0.06790
N2828       N  0.72387426  0.88973440  0.10421907    -0.46970
N2829       N  0.77597424  0.82009994  0.89598872    -0.47190
C2830       C  0.75175444  0.97921709  0.98033638     0.42120
N2831       N  0.69968563  0.89853404  0.94075398     0.00990
N2832       N  0.81340428  0.91142960  0.01529168    -0.25890
N2833       N  0.69821278  0.89586516  0.05288374    -0.26380
N2834       N  0.82751168  0.88868848  0.99831374     0.00630
H2835       H  0.82948023  0.95614242  0.02968875     0.06520
H2836       H  0.84580572  0.81359845  0.93637182     0.06560
N2837       N  0.71443929  0.87713203  0.92209893    -0.26430
N2838       N  0.77548738  0.80713590  0.00476586    -0.26040
N2839       N  0.75113833  0.93976763  0.01257933     0.01000
C2840       C  0.63826973  0.82091826  0.99530552     0.42390
C2841       C  0.79167222  0.87820799  0.10635599    -0.07290
N2842       N  0.80141355  0.83757998  0.94436783    -0.26040
H2843       H  0.80110571  0.77677460  0.03990352     0.06540
N2844       N  0.64340410  0.84986292  0.00579117    -0.47260
H2845       H  0.78316318  0.89779223  0.12101668     0.06530
C2846       C  0.86277183  0.92492278  0.99742367     0.42230
C2847       C  0.67679339  0.88356222  0.07576972    -0.06790
Co2848     Co  0.76862053  0.90652257  0.04253133     0.73820
N2849       N  0.82778981  0.84568171  0.08327172    -0.46980
C2850       C  0.70104483  0.91717202  0.88718919     0.42490
N2851       N  0.76848480  0.96333876  0.00414476    -0.46970
Co2852     Co  0.80351375  0.84624450  0.00109287     0.73890
C2853       C  0.82275310  0.82064560  0.92604082    -0.07300
C2854       C  0.66663587  0.81115805  0.97581398    -0.06860
N2855       N  0.72337979  0.93860321  0.99616855    -0.26390
N2856       N  0.73463188  0.77785107  0.99121026    -0.47150
H2857       H  0.72747740  0.87482951  0.86513613     0.06500
C2858       C  0.83361652  0.93509724  0.01564100    -0.07270
Cl2859     Cl  0.75038682  0.87229334  0.99755203    -0.50270
C2860       C  0.81905142  0.86060172  0.11429256     0.42260
H2861       H  0.70132247  0.96949413  0.95831050     0.06470
N2862       N  0.85754140  0.89545010  0.98852135    -0.46990
C2863       C  0.56157684  0.98940951  0.10972354     0.42110
N2864       N  0.53218919  0.96638891  0.07084987     0.01000
C2865       C  0.53223316  0.97338332  0.88975133    -0.06880
H2866       H  0.58415875  0.57513037  0.95666516     0.06490
C2867       C  0.97826253  0.58558653  0.01944313    -0.07230
Co2868     Co  0.55918836  0.96707312  0.99670310     0.74180
N2869       N  0.56999595  0.53014562  0.97245585    -0.26410
Co2870     Co  0.52478745  0.52510299  0.95004675     0.74070
C2871       C  0.00636586  0.60354270  0.00915564     0.42210
N2872       N  0.95300773  0.51487664  0.05967250     0.00610
N2873       N  0.50838363  0.56083200  0.98216354     0.00720
N2874       N  0.55630774  0.93825169  0.92300565    -0.47260
H2875       H  0.60200134  0.99590337  0.06801453     0.06480
N2876       N  0.58409797  0.50867280  0.99092764     0.01000
N2877       N  0.98101823  0.52387298  0.92582632     0.00740
C2878       C  0.94819611  0.54414624  0.88880987     0.42350
N2879       N  0.97201965  0.99405737  0.07244029    -0.25870
C2880       C  0.53702091  0.89985208  0.98195022    -0.06790
N2881       N  0.53313148  0.97642974  0.10458307    -0.46970
N2882       N  0.97851999  0.53530699  0.89298748    -0.47190
C2883       C  0.50595646  0.88471362  0.98616003     0.42120
N2884       N  0.55350208  0.96373101  0.94122300     0.00990
N2885       N  0.94341022  0.95471290  0.01777323    -0.25890
N2886       N  0.55900428  0.97174865  0.05300072    -0.26380
N2887       N  0.92929125  0.97744255  0.00101056     0.00630
H2888       H  0.92762882  0.90949307  0.03049394     0.06520
H2889       H  0.90787040  0.54402731  0.93160935     0.06560
N2890       N  0.53908409  0.98506816  0.92263314    -0.26430
N2891       N  0.98184275  0.55917074  0.00210730    -0.26040
N2892       N  0.50555915  0.92575445  0.01526579     0.01000
C2893       C  0.61812078  0.54580287  0.99025173     0.42390
C2894       C  0.96857767  0.49069767  0.10743838    -0.07290
N2895       N  0.95389151  0.52456814  0.94447535    -0.26040
H2896       H  0.95846408  0.59156998  0.03697932     0.06540
N2897       N  0.61324738  0.51699073  0.00197995    -0.47260
H2898       H  0.97681909  0.97103222  0.12205389     0.06530
C2899       C  0.89460941  0.94086226  0.99822163     0.42230
C2900       C  0.57938023  0.98584555  0.07563224    -0.06790
Co2901     Co  0.98857542  0.95980502  0.04400624     0.73820
N2902       N  0.93243875  0.52331329  0.08565359    -0.46980
C2903       C  0.54303257  0.94140399  0.89009763     0.42490
N2904       N  0.48853995  0.90165507  0.00835125    -0.46970
Co2905     Co  0.95335587  0.51968303  0.00169716     0.73890
C2906       C  0.93142818  0.53686024  0.92283815    -0.07300
C2907       C  0.58943691  0.55426587  0.97053335    -0.06860
N2908       N  0.53373395  0.92621316  0.99959647    -0.26390
N2909       N  0.52327744  0.58691253  0.98545630    -0.47150
H2910       H  0.51917015  0.48493483  0.86867272     0.06500
C2911       C  0.92341399  0.93082790  0.01722680    -0.07270
Cl2912     Cl  0.50636270  0.99311529  0.99800369    -0.50270
C2913       C  0.94256333  0.50933875  0.11682593     0.42260
H2914       H  0.55711975  0.89321607  0.96520253     0.06470
N2915       N  0.89974781  0.97043341  0.99001622    -0.46990
C2916       C  0.93876924  0.74681492  0.10532881     0.42110
N2917       N  0.97214146  0.76907201  0.07010149     0.01000
C2918       C  0.97135402  0.76284818  0.88663174    -0.06880
H2919       H  0.93056316  0.66040127  0.96078486     0.06490
C2920       C  0.53521148  0.65534385  0.01840002    -0.07230
Co2921     Co  0.94786145  0.77047643  0.99495679     0.74180
N2922       N  0.94153870  0.70685771  0.97285147    -0.26410
Co2923     Co  0.98569342  0.71374290  0.94906364     0.74070
C2924       C  0.50804928  0.63627297  0.00810518     0.42210
N2925       N  0.55688168  0.72700046  0.05830081     0.00610
N2926       N  0.50420136  0.67865466  0.98082147     0.00720
N2927       N  0.94447644  0.79666413  0.92068591    -0.47260
H2928       H  0.90005854  0.74588902  0.06176916     0.06480
N2929       N  0.92586839  0.72830852  0.98980139     0.01000
N2930       N  0.52909595  0.71753506  0.92466515     0.00740
C2931       C  0.56244660  0.69688859  0.88840419     0.42350
N2932       N  0.53371770  0.74306431  0.07264706    -0.25870
C2933       C  0.97038387  0.83730865  0.97948343    -0.06790
N2934       N  0.96892600  0.75723437  0.10285000    -0.46970
N2935       N  0.53208806  0.70575160  0.89207513    -0.47190
C2936       C  0.00057031  0.85304560  0.98686893     0.42120
N2937       N  0.95253620  0.77283260  0.93972598     0.00990
N2938       N  0.56161849  0.78606301  0.02080671    -0.25890
N2939       N  0.94591655  0.76634355  0.05067694    -0.26380
N2940       N  0.57628399  0.76524620  0.00114214     0.00630
H2941       H  0.57564145  0.83096719  0.03740392     0.06520
H2942       H  0.60225588  0.69776070  0.93149016     0.06560
N2943       N  0.96822341  0.75226324  0.92089881    -0.26430
N2944       N  0.53037707  0.68147722  0.00089334    -0.26040
N2945       N  0.99883237  0.81279105  0.01748191     0.01000
C2946       C  0.89537941  0.68931562  0.99333549     0.42390
C2947       C  0.53939499  0.74927514  0.10681729    -0.07290
N2948       N  0.55603436  0.71743302  0.94346894    -0.26040
H2949       H  0.55498895  0.65042208  0.03632038     0.06540
N2950       N  0.89739126  0.71905783  0.00148244    -0.47260
H2951       H  0.52812726  0.76789166  0.12095188     0.06530
C2952       C  0.60904147  0.80268373  0.00139161     0.42230
C2953       C  0.92312121  0.75350934  0.07112628    -0.06790
Co2954     Co  0.51620839  0.77807888  0.04561027     0.73820
N2955       N  0.58196835  0.72656995  0.08077249    -0.46980
C2956       C  0.95590285  0.79286462  0.88715491     0.42490
N2957       N  0.51597746  0.83701890  0.01163946    -0.46970
Co2958     Co  0.55591337  0.72228613  0.00063913     0.73890
C2959       C  0.57882989  0.70483878  0.92231870    -0.07300
C2960       C  0.92419968  0.68148273  0.97357814    -0.06860
N2961       N  0.97232356  0.81156250  0.99854787    -0.26390
N2962       N  0.49058930  0.65198473  0.98420586    -0.47150
H2963       H  0.98369593  0.75159977  0.86468854     0.06500
C2964       C  0.58064633  0.81052540  0.02246171    -0.07270
Cl2965     Cl  0.50162830  0.74615830  0.99726797    -0.50270
C2966       C  0.57149414  0.73984137  0.11203680     0.42260
H2967       H  0.95205361  0.84310245  0.96010957     0.06470
N2968       N  0.60490186  0.77406224  0.98945590    -0.46990
C2969       C  0.80684150  0.55783222  0.85599470     0.42110
N2970       N  0.84585049  0.56126656  0.81904266     0.01000
C2971       C  0.86429757  0.52037695  0.64057227    -0.06880
H2972       H  0.92821020  0.96958701  0.71771248     0.06490
C2973       C  0.99217766  0.54588754  0.75784598    -0.07230
Co2974     Co  0.83340874  0.54122434  0.74400718     0.74180
N2975       N  0.89091734  0.00247005  0.72603444    -0.26410
Co2976     Co  0.90823059  0.53902960  0.69750293     0.74070
C2977       C  0.99768689  0.01614287  0.74143180     0.42210
N2978       N  0.93372393  0.58611301  0.80823267     0.00610
N2979       N  0.95249050  0.53431185  0.72321695     0.00720
N2980       N  0.81749798  0.51867795  0.67041697    -0.47260
H2981       H  0.77607982  0.03373403  0.81259359     0.06480
N2982       N  0.86369693  0.00260570  0.74502865     0.01000
N2983       N  0.92352116  0.58039217  0.67382404     0.00740
C2984       C  0.93268454  0.61920724  0.64004889     0.42350
N2985       N  0.90563633  0.58947456  0.82424244    -0.25870
C2986       C  0.77969475  0.59234510  0.73241509    -0.06790
N2987       N  0.83619074  0.56790657  0.85164796    -0.46970
N2988       N  0.92160901  0.59033196  0.63979321    -0.47190
C2989       C  0.77504734  0.62310081  0.74698298     0.42120
N2990       N  0.83766744  0.53667650  0.68754119     0.00990
N2991       N  0.88300022  0.63431544  0.77476496    -0.25890
N2992       N  0.82592452  0.54444397  0.80076714    -0.26380
N2993       N  0.91082038  0.63476427  0.75819948     0.00630
H2994       H  0.84661093  0.66713729  0.78667684     0.06520
H2995       H  0.95240963  0.64631253  0.68771390     0.06560
N2996       N  0.86566540  0.53759452  0.67054938    -0.26430
N2997       N  0.96353693  0.55516708  0.74498337    -0.26040
N2998       N  0.82069736  0.60475005  0.76509902     0.01000
C2999       C  0.88529593  0.95973843  0.75398631     0.42390
C3000       C  0.90735855  0.57909337  0.85815401    -0.07290
N3001       N  0.93570752  0.60090642  0.69586118    -0.26040
H3002       H  0.00735337  0.55844069  0.77604991     0.06540
N3003       N  0.85929171  0.97677282  0.76226046    -0.47260
H3004       H  0.88793742  0.57699652  0.87720101     0.06530
C3005       C  0.89171029  0.67896651  0.75497901     0.42230
C3006       C  0.79912780  0.54177948  0.82180036    -0.06790
Co3007     Co  0.86398284  0.59765235  0.79551775     0.73820
N3008       N  0.95429523  0.57140150  0.82928653    -0.46980
C3009       C  0.83306285  0.50641907  0.64183036     0.42490
N3010       N  0.80128303  0.62855577  0.76748716    -0.46970
Co3011     Co  0.93706429  0.59477717  0.75213136     0.73890
C3012       C  0.94271107  0.62565483  0.67685395    -0.07300
C3013       C  0.90572517  0.97618606  0.72993736    -0.06860
N3014       N  0.80872974  0.58311033  0.74440096    -0.26390
N3015       N  0.97204354  0.01072929  0.72024621    -0.47150
H3016       H  0.88495407  0.51262920  0.62546458     0.06500
C3017       C  0.86960104  0.66125573  0.77504917    -0.07270
Cl3018     Cl  0.88544857  0.56829970  0.74676144    -0.50270
C3019       C  0.93880288  0.56620883  0.86105646     0.42260
H3020       H  0.76295831  0.57863104  0.71736937     0.06470
N3021       N  0.91701814  0.66179207  0.74484364    -0.46990
C3022       C  0.82050909  0.79312039  0.86349253     0.42110
N3023       N  0.85188535  0.80425628  0.81989096     0.01000
C3024       C  0.85639814  0.78202252  0.63538081    -0.06880
H3025       H  0.92398834  0.71973814  0.70256699     0.06490
C3026       C  0.98746906  0.79154551  0.75471142    -0.07230
Co3027     Co  0.83262333  0.78898272  0.74475308     0.74180
N3028       N  0.88796010  0.75248234  0.71757550    -0.26410
Co3029     Co  0.90350082  0.79171869  0.69357235     0.74070
C3030       C  0.98943100  0.76067521  0.74000371     0.42210
N3031       N  0.93623686  0.83275529  0.80633801     0.00610
N3032       N  0.94833415  0.78446644  0.71774831     0.00720
N3033       N  0.81139164  0.77383245  0.66746335    -0.47260
H3034       H  0.78475212  0.77150125  0.82280840     0.06480
N3035       N  0.86239909  0.75139964  0.73905271     0.01000
N3036       N  0.91644718  0.83513761  0.67450495     0.00740
C3037       C  0.91778297  0.87796831  0.64501949     0.42350
N3038       N  0.90942869  0.83641325  0.82472808    -0.25870
C3039       C  0.78028590  0.83853465  0.73633647    -0.06790
N3040       N  0.84797373  0.80562407  0.85485847    -0.46970
N3041       N  0.90939266  0.84822247  0.64316499    -0.47190
C3042       C  0.77527370  0.86841688  0.75166594     0.42120
N3043       N  0.83251243  0.78925716  0.68710512     0.00990
N3044       N  0.88171445  0.88276579  0.78007557    -0.25890
N3045       N  0.83052170  0.78811496  0.80286567    -0.26380
N3046       N  0.90957510  0.88418708  0.76356254     0.00630
H3047       H  0.84575528  0.91530564  0.79556795     0.06520
H3048       H  0.94075868  0.90160513  0.69314175     0.06560
N3049       N  0.85951298  0.79329766  0.66885970    -0.26430
N3050       N  0.96071828  0.80404900  0.74029775    -0.26040
N3051       N  0.82001475  0.85033431  0.77178535     0.01000
C3052       C  0.88401859  0.70836665  0.74219926     0.42390
C3053       C  0.91420909  0.82714458  0.85860045    -0.07290
N3054       N  0.92956393  0.85434743  0.69720089    -0.26040
H3055       H  0.00263312  0.80189819  0.77482771     0.06540
N3056       N  0.85912615  0.72488792  0.75455212    -0.47260
H3057       H  0.89644513  0.82590258  0.87979164     0.06530
C3058       C  0.89118240  0.92912811  0.76514782     0.42230
C3059       C  0.80809374  0.78099132  0.82839782    -0.06790
Co3060     Co  0.86537519  0.84381874  0.79912562     0.73820
N3061       N  0.95852682  0.81801720  0.82513793    -0.46980
C3062       C  0.82489576  0.76845095  0.63461383     0.42490
N3063       N  0.80075329  0.87428661  0.77337809    -0.46970
Co3064     Co  0.93549173  0.84425025  0.75174060     0.73890
C3065       C  0.93139742  0.88131285  0.68107678    -0.07300
C3066       C  0.90255258  0.72580970  0.71729472    -0.06860
N3067       N  0.80834975  0.82929232  0.75007962    -0.26390
N3068       N  0.96493809  0.75880329  0.71631055    -0.47150
H3069       H  0.87633873  0.77692773  0.61763204     0.06500
C3070       C  0.86846826  0.90995265  0.78291126    -0.07270
Cl3071     Cl  0.88403848  0.81734646  0.74692485    -0.50270
C3072       C  0.94579487  0.81374356  0.85842856     0.42260
H3073       H  0.76508186  0.82566524  0.71843015     0.06470
N3074       N  0.91616801  0.91211135  0.75361427    -0.46990
C3075       C  0.68529265  0.70529579  0.87332463     0.42110
N3076       N  0.66501664  0.68903462  0.82444582     0.01000
C3077       C  0.65208391  0.74400202  0.65208134    -0.06880
H3078       H  0.58611297  0.78977794  0.72725101     0.06490
C3079       C  0.52078885  0.70759984  0.75510218    -0.07230
Co3080     Co  0.67987044  0.71918836  0.75515772     0.74180
N3081       N  0.62166904  0.75577590  0.73793441    -0.26410
Co3082     Co  0.60843459  0.71975582  0.70454645     0.74070
C3083       C  0.51719277  0.73907045  0.74138872     0.42210
N3084       N  0.58041114  0.66130489  0.80577093     0.00610
N3085       N  0.56368006  0.72108241  0.72744292     0.00720
N3086       N  0.69739902  0.74862882  0.68344258    -0.47260
H3087       H  0.71309256  0.74225357  0.84133694     0.06480
N3088       N  0.64816974  0.75572146  0.75777021     0.01000
N3089       N  0.59685253  0.67886190  0.67573636     0.00740
C3090       C  0.59390927  0.63999559  0.63912143     0.42350
N3091       N  0.60766733  0.65605972  0.82263148    -0.25870
C3092       C  0.73836695  0.67313099  0.74012541    -0.06790
N3093       N  0.66690877  0.68463968  0.85905183    -0.46970
N3094       N  0.60180749  0.67002357  0.64166883    -0.47190
C3095       C  0.74447571  0.64116642  0.74922467     0.42120
N3096       N  0.67875204  0.72792846  0.69870426     0.00990
N3097       N  0.63743905  0.62032652  0.76511087    -0.25890
N3098       N  0.68061147  0.71252050  0.81245073    -0.26380
N3099       N  0.60890292  0.61928765  0.75058179     0.00630
H3100       H  0.67795913  0.59044183  0.76626190     0.06520
H3101       H  0.57140130  0.61101189  0.68275992     0.06560
N3102       N  0.65170359  0.72520953  0.68040856    -0.26430
N3103       N  0.55094248  0.69861515  0.74548973    -0.26040
N3104       N  0.69693100  0.65448492  0.76750300     0.01000
C3105       C  0.62778058  0.79951096  0.76554647     0.42390
C3106       C  0.60328329  0.66149814  0.85800528    -0.07290
N3107       N  0.58437985  0.65677205  0.69482108    -0.26040
H3108       H  0.50343334  0.69396606  0.76943886     0.06540
N3109       N  0.65330263  0.78200897  0.77355977    -0.47260
H3110       H  0.62094510  0.66033416  0.87910144     0.06530
C3111       C  0.63361423  0.57890826  0.73404377     0.42230
C3112       C  0.69588166  0.72406564  0.84185695    -0.06790
Co3113     Co  0.65179801  0.65445045  0.79487160     0.73820
N3114       N  0.55847648  0.67334246  0.82746467    -0.46980
C3115       C  0.68146783  0.76097326  0.65493352     0.42490
N3116       N  0.71780272  0.63176185  0.76665652    -0.46970
Co3117     Co  0.57970285  0.65854433  0.74975711     0.73890
C3118       C  0.58148813  0.63228625  0.67428480    -0.07300
C3119       C  0.60713857  0.78236089  0.74177591    -0.06860
N3120       N  0.70823126  0.67919743  0.75200126    -0.26390
N3121       N  0.54482335  0.74497891  0.72444208    -0.47150
H3122       H  0.63106320  0.75039525  0.63681540     0.06500
C3123       C  0.65443427  0.59617682  0.75638964    -0.07270
Cl3124     Cl  0.63013907  0.68809318  0.75081000    -0.50270
C3125       C  0.57186523  0.67477090  0.86071860     0.42260
H3126       H  0.75446015  0.68924810  0.72785633     0.06470
N3127       N  0.60516525  0.59377116  0.73248079    -0.46990
C3128       C  0.56091010  0.92758723  0.86034095     0.42110
N3129       N  0.59665678  0.93520230  0.82029536     0.01000
C3130       C  0.61108963  0.89843090  0.63919372    -0.06880
H3131       H  0.67493278  0.83870849  0.72782918     0.06490
C3132       C  0.74181662  0.91891530  0.75892398    -0.07230
Co3133     Co  0.58225535  0.91374942  0.74574847     0.74180
N3134       N  0.63861964  0.87326739  0.73060969    -0.26410
Co3135     Co  0.65704698  0.90901067  0.69969294     0.74070
C3136       C  0.74729073  0.88845765  0.74534577     0.42210
N3137       N  0.68490260  0.95927185  0.80611570     0.00610
N3138       N  0.70158221  0.90473385  0.72612677     0.00720
N3139       N  0.56341141  0.89753525  0.66803371    -0.47260
H3140       H  0.52966092  0.90154188  0.81900225     0.06480
N3141       N  0.61070172  0.87489910  0.74798607     0.01000
N3142       N  0.67321666  0.94951943  0.67369045     0.00740
C3143       C  0.68275915  0.98799739  0.63955554     0.42350
N3144       N  0.65745543  0.96353940  0.82313712    -0.25870
C3145       C  0.53019492  0.96473464  0.73155882    -0.06790
N3146       N  0.58858658  0.94068346  0.85373492    -0.46970
N3147       N  0.67084749  0.95931475  0.63955940    -0.47190
C3148       C  0.52530922  0.49514122  0.74648089     0.42120
N3149       N  0.58578046  0.90988195  0.68885297     0.00990
N3150       N  0.63199459  0.50650741  0.76940042    -0.25890
N3151       N  0.57694939  0.91727425  0.80306086    -0.26380
N3152       N  0.65980893  0.50631862  0.75291082     0.00630
H3153       H  0.59274612  0.53797658  0.77181570     0.06520
H3154       H  0.70425367  0.51484283  0.68601111     0.06560
N3155       N  0.61407435  0.90970074  0.67257949    -0.26430
N3156       N  0.71296920  0.92691133  0.74571017    -0.26040
N3157       N  0.57004736  0.97684503  0.76635411     0.01000
C3158       C  0.62981723  0.83189147  0.76245441     0.42390
C3159       C  0.66043787  0.95295222  0.85692858    -0.07290
N3160       N  0.68603446  0.97019020  0.69489753    -0.26040
H3161       H  0.75708827  0.93279289  0.77561092     0.06540
N3162       N  0.60418611  0.85014977  0.76642773    -0.47260
H3163       H  0.64155388  0.95093732  0.87670294     0.06530
C3164       C  0.63599157  0.54691640  0.73654958     0.42230
C3165       C  0.55223691  0.91182179  0.82626661    -0.06790
Co3166     Co  0.61432532  0.97102650  0.79510767     0.73820
N3167       N  0.70567605  0.94327478  0.82571376    -0.46980
C3168       C  0.57778281  0.88994258  0.63637871     0.42490
N3169       N  0.55074423  0.50067917  0.76798035    -0.46970
Co3170     Co  0.68688330  0.96635826  0.75040959     0.73890
C3171       C  0.69376047  0.99436668  0.67560502    -0.07300
C3172       C  0.65224300  0.84677310  0.73822872    -0.06860
N3173       N  0.55842508  0.95532367  0.74535431    -0.26390
N3174       N  0.72140814  0.88125689  0.72505021    -0.47150
H3175       H  0.63087604  0.89150212  0.62212283     0.06500
C3176       C  0.61595515  0.53142631  0.76159415    -0.07270
Cl3177     Cl  0.63492706  0.94002139  0.74730422    -0.50270
C3178       C  0.69160872  0.93848659  0.85816316     0.42260
H3179       H  0.51419877  0.95133925  0.71512616     0.06470
N3180       N  0.66371861  0.53114800  0.73353288    -0.46990
C3181       C  0.69804996  0.54904520  0.38828243     0.42110
N3182       N  0.70925242  0.51262347  0.42423930     0.01000
C3183       C  0.72110912  0.52376221  0.60688037    -0.06880
H3184       H  0.78977027  0.60327224  0.51843738     0.06490
C3185       C  0.85291000  0.52948753  0.48288923    -0.07230
Co3186     Co  0.69545493  0.53131394  0.49971060     0.74180
N3187       N  0.75029096  0.57231936  0.51690575    -0.26410
Co3188     Co  0.76748937  0.53743582  0.54416951     0.74070
C3189       C  0.85761424  0.56008568  0.49728334     0.42210
N3190       N  0.79732787  0.97486927  0.43915559     0.00610
N3191       N  0.81225325  0.54237291  0.51625263     0.00720
N3192       N  0.67672489  0.51058304  0.57625025    -0.47260
H3193       H  0.67628551  0.57761751  0.43347033     0.06480
N3194       N  0.72250879  0.57202435  0.50042998     0.01000
N3195       N  0.78373725  0.00110683  0.57004944     0.00740
C3196       C  0.81578198  0.99102017  0.61296585     0.42350
N3197       N  0.76900296  0.97557148  0.42322176    -0.25870
C3198       C  0.64354570  0.98024618  0.51126388    -0.06790
N3199       N  0.71100794  0.52092199  0.38965928    -0.46970
N3200       N  0.78917380  0.00515693  0.60436215    -0.47190
C3201       C  0.64195346  0.94840707  0.50077385     0.42120
N3202       N  0.69718742  0.52595998  0.55550163     0.00990
N3203       N  0.74568975  0.93769092  0.48070591    -0.25890
N3204       N  0.69592495  0.53372111  0.44446237    -0.26380
N3205       N  0.77311610  0.93947590  0.49860693     0.00630
H3206       H  0.71065199  0.90225087  0.47544003     0.06520
H3207       H  0.84868417  0.96413504  0.57367997     0.06560
N3208       N  0.72425920  0.53179358  0.57222033    -0.26430
N3209       N  0.82426098  0.52046843  0.49602732    -0.26040
N3210       N  0.68418682  0.96834640  0.47819537     0.01000
C3211       C  0.74711140  0.61225576  0.48287897     0.42390
C3212       C  0.77103906  0.96438504  0.38981877    -0.07290
N3213       N  0.80385395  0.98270890  0.55395212    -0.26040
H3214       H  0.86926754  0.51573732  0.46723615     0.06540
N3215       N  0.71907922  0.59664210  0.48032962    -0.47260
H3216       H  0.75069058  0.95761035  0.37367043     0.06530
C3217       C  0.75470181  0.89576700  0.51124085     0.42230
C3218       C  0.68716622  0.55691590  0.42401979    -0.06790
Co3219     Co  0.72690052  0.97349151  0.45070366     0.73820
N3220       N  0.81879535  0.96134036  0.41800190    -0.46980
C3221       C  0.69067765  0.50829819  0.60908056     0.42490
N3222       N  0.66734951  0.94315542  0.47934740    -0.46970
Co3223     Co  0.80054264  0.97883902  0.49647688     0.73890
C3224       C  0.82635998  0.97570836  0.57909848    -0.07300
C3225       C  0.76672811  0.59673956  0.50817933    -0.06860
N3226       N  0.67113906  0.99039240  0.49677468    -0.26390
N3227       N  0.83165572  0.56609978  0.51795055    -0.47150
H3228       H  0.73962834  0.52401751  0.62705104     0.06500
C3229       C  0.73264701  0.91073347  0.48696582    -0.07270
Cl3230     Cl  0.74782221  0.50535717  0.49733021    -0.50270
C3231       C  0.80363653  0.95429617  0.38660730     0.42260
H3232       H  0.62713032  0.99319466  0.52782538     0.06470
N3233       N  0.77991362  0.91435170  0.51628466    -0.46990
C3234       C  0.79977557  0.70678547  0.38696276     0.42110
N3235       N  0.79048866  0.74383101  0.42369368     0.01000
C3236       C  0.78304714  0.73104702  0.60775571    -0.06880
H3237       H  0.70813805  0.65468249  0.51903864     0.06490
C3238       C  0.64737361  0.73426286  0.48950977    -0.07230
Co3239     Co  0.80533958  0.72349113  0.49887400     0.74180
N3240       N  0.74858544  0.68456504  0.51637735    -0.26410
Co3241     Co  0.73380042  0.71909340  0.54577778     0.74070
C3242       C  0.64214430  0.70213954  0.49918774     0.42210
N3243       N  0.70609328  0.78959711  0.44714193     0.00610
N3244       N  0.68861368  0.71756738  0.51868185     0.00720
N3245       N  0.82707302  0.74103976  0.57512570    -0.47260
H3246       H  0.81984527  0.67733554  0.43196196     0.06480
N3247       N  0.77608617  0.68408649  0.49929522     0.01000
N3248       N  0.71930272  0.75376925  0.57466876     0.00740
C3249       C  0.69847028  0.77132530  0.62286130     0.42350
N3250       N  0.73327374  0.78786930  0.42856836    -0.25870
C3251       C  0.86262095  0.77183573  0.50745322    -0.06790
N3252       N  0.78914962  0.73596332  0.38877190    -0.46970
N3253       N  0.71673936  0.74999050  0.60942189    -0.47190
C3254       C  0.86753885  0.80277102  0.49349823     0.42120
N3255       N  0.80509839  0.72718554  0.55513473     0.00990
N3256       N  0.76261840  0.81975849  0.48571472    -0.25890
N3257       N  0.80257179  0.72190281  0.44352572    -0.26380
N3258       N  0.73600487  0.81959374  0.50558445     0.00630
H3259       H  0.79843962  0.85356748  0.47560343     0.06520
H3260       H  0.67125748  0.80768615  0.58936740     0.06560
N3261       N  0.77817262  0.72278300  0.57307804    -0.26430
N3262       N  0.67695281  0.74163094  0.50208267    -0.26040
N3263       N  0.82183412  0.78565657  0.47610941     0.01000
C3264       C  0.74986562  0.64451525  0.48208031     0.42390
C3265       C  0.73087958  0.80420729  0.39815463    -0.07290
N3266       N  0.70388972  0.77706059  0.56175281    -0.26040
H3267       H  0.63112370  0.74953388  0.47600238     0.06540
N3268       N  0.77830028  0.65944713  0.47898172    -0.47260
H3269       H  0.75088025  0.81066266  0.38120267     0.06530
C3270       C  0.75662191  0.86328952  0.51395142     0.42230
C3271       C  0.80952487  0.69835014  0.42282322    -0.06790
Co3272     Co  0.77704982  0.78395430  0.45257671     0.73820
N3273       N  0.68537707  0.80743432  0.43035610    -0.46980
C3274       C  0.81450961  0.74474774  0.60863224     0.42490
N3275       N  0.84115476  0.80934206  0.47433733    -0.46970
Co3276     Co  0.70471289  0.78242363  0.50408297     0.73890
C3277       C  0.68842499  0.78943817  0.59065552    -0.07300
C3278       C  0.73111724  0.66071878  0.50779821    -0.06860
N3279       N  0.83339996  0.76325086  0.49523791    -0.26390
N3280       N  0.66856695  0.69421354  0.51796067    -0.47150
H3281       H  0.76567929  0.73159561  0.62929087     0.06500
C3282       C  0.77717328  0.84625175  0.48983530    -0.07270
Cl3283     Cl  0.75472649  0.75240879  0.49966642    -0.50270
C3284       C  0.69978925  0.81846336  0.40008237     0.42260
H3285       H  0.87856741  0.75820769  0.52367716     0.06470
N3286       N  0.73097977  0.84580041  0.52176359    -0.46990
C3287       C  0.96342537  0.67782415  0.38617959     0.42110
N3288       N  0.96491906  0.63879615  0.42271443     0.01000
C3289       C  0.97368339  0.65141088  0.60542365    -0.06880
H3290       H  0.54378192  0.72852604  0.51418286     0.06490
C3291       C  0.60721193  0.65142400  0.48571817    -0.07230
Co3292     Co  0.94801850  0.65884796  0.49777071     0.74180
N3293       N  0.50385466  0.69805925  0.51373541    -0.26410
Co3294     Co  0.52015585  0.66408371  0.54233854     0.74070
C3295       C  0.61195819  0.68322425  0.49740739     0.42210
N3296       N  0.54774586  0.59248594  0.44371715     0.00610
N3297       N  0.56480771  0.66705842  0.51389459     0.00720
N3298       N  0.92803862  0.64042047  0.57575997    -0.47260
H3299       H  0.94006876  0.70680946  0.42939548     0.06480
N3300       N  0.97559393  0.69851436  0.49890757     0.01000
N3301       N  0.53728469  0.63072224  0.57157169     0.00740
C3302       C  0.57535096  0.62777875  0.60913655     0.42350
N3303       N  0.52021272  0.59368326  0.42609787    -0.25870
C3304       C  0.89094947  0.61144905  0.50599207    -0.06790
N3305       N  0.97069607  0.64766876  0.38874969    -0.46970
N3306       N  0.54754513  0.64060897  0.60270606    -0.47190
C3307       C  0.88576063  0.58053615  0.49255653     0.42120
N3308       N  0.94910628  0.65430227  0.55422363     0.00990
N3309       N  0.99279058  0.56317994  0.48547243    -0.25890
N3310       N  0.95249880  0.66094881  0.44196285    -0.26380
N3311       N  0.52000631  0.56422513  0.50418343     0.00630
H3312       H  0.95737095  0.52856069  0.47775054     0.06520
H3313       H  0.60327664  0.59508404  0.57178780     0.06560
N3314       N  0.97666804  0.65927752  0.57061918    -0.26430
N3315       N  0.57712175  0.64359696  0.49644857    -0.26040
N3316       N  0.93223151  0.59661790  0.47557090     0.01000
C3317       C  0.99993462  0.73852665  0.48100091     0.42390
C3318       C  0.52122591  0.57508983  0.39736522    -0.07290
N3319       N  0.55562594  0.61013695  0.55646806    -0.26040
H3320       H  0.62450251  0.63630135  0.47355155     0.06540
N3321       N  0.97163093  0.72354376  0.47993457    -0.47260
H3322       H  0.50044491  0.56775718  0.38233969     0.06530
C3323       C  0.50061718  0.52022059  0.51442771     0.42230
C3324       C  0.95011015  0.68544055  0.42123319    -0.06790
Co3325     Co  0.97734094  0.59826678  0.45159553     0.73820
N3326       N  0.56713481  0.57247356  0.42834698    -0.46980
C3327       C  0.94214460  0.63814463  0.60867660     0.42490
N3328       N  0.91246800  0.57321271  0.47392068    -0.46970
Co3329     Co  0.55072565  0.60214148  0.49981523     0.73890
C3330       C  0.58127505  0.60661756  0.57878155    -0.07300
C3331       C  0.52045561  0.72221905  0.50447593    -0.06860
N3332       N  0.92048466  0.61933683  0.49403774    -0.26390
N3333       N  0.58479918  0.69038375  0.51535363    -0.47150
H3334       H  0.99277607  0.65027964  0.62490945     0.06500
C3335       C  0.97891808  0.53648007  0.49086201    -0.07270
Cl3336     Cl  0.99935205  0.63063932  0.49760962    -0.50270
C3337       C  0.55160453  0.55965141  0.39990872     0.42260
H3338       H  0.87495239  0.62561801  0.52159784     0.06470
N3339       N  0.52609139  0.53835865  0.52068138    -0.46990
C3340       C  0.55388928  0.83118010  0.38787849     0.42110
N3341       N  0.54263062  0.86818425  0.42408398     0.01000
C3342       C  0.53196225  0.85846904  0.60762957    -0.06880
H3343       H  0.96045222  0.77935492  0.51924321     0.06490
C3344       C  0.89973752  0.85498268  0.48477061    -0.07230
Co3345     Co  0.55628637  0.84855409  0.49975965     0.74180
N3346       N  0.00045831  0.80982469  0.51730448    -0.26410
Co3347     Co  0.98438762  0.84502932  0.54551715     0.74070
C3348       C  0.89493597  0.82402068  0.49866621     0.42210
N3349       N  0.95697355  0.91285039  0.44313388     0.00610
N3350       N  0.93999758  0.84165638  0.51790523     0.00720
N3351       N  0.57790988  0.86394499  0.57646176    -0.47260
H3352       H  0.57478025  0.80274448  0.43336901     0.06480
N3353       N  0.52788149  0.80964179  0.50004619     0.01000
N3354       N  0.96841966  0.88052304  0.57273505     0.00740
C3355       C  0.93614366  0.89132636  0.61546410     0.42350
N3356       N  0.98477708  0.91166211  0.42577429    -0.25870
C3357       C  0.61077912  0.89732366  0.51117006    -0.06790
N3358       N  0.54120962  0.85966294  0.38934579    -0.46970
N3359       N  0.96162940  0.87539059  0.60656664    -0.47190
C3360       C  0.61370872  0.92902913  0.50037388     0.42120
N3361       N  0.55517685  0.85203150  0.55589734     0.00990
N3362       N  0.51073283  0.94456137  0.48435704    -0.25890
N3363       N  0.55549493  0.84682854  0.44425165    -0.26380
N3364       N  0.98342969  0.94362468  0.50292120     0.00630
H3365       H  0.54611142  0.97941449  0.47702912     0.06520
H3366       H  0.90593002  0.92121631  0.57688075     0.06560
N3367       N  0.52766356  0.84968921  0.57317331    -0.26430
N3368       N  0.92837234  0.86401481  0.49813789    -0.26040
N3369       N  0.57039390  0.91082527  0.47885518     0.01000
C3370       C  0.50229337  0.77048597  0.48207537     0.42390
C3371       C  0.98359555  0.92924512  0.39622298    -0.07290
N3372       N  0.94980137  0.90041201  0.55713039    -0.26040
H3373       H  0.88348705  0.86879443  0.46917887     0.06540
N3374       N  0.53045445  0.78553743  0.47908628    -0.47260
H3375       H  0.00434881  0.93653843  0.38098058     0.06530
C3376       C  0.00262833  0.98751740  0.51371235     0.42230
C3377       C  0.56414503  0.82350015  0.42379137    -0.06790
Co3378     Co  0.52730621  0.90847592  0.45226113     0.73820
N3379       N  0.93712378  0.93160912  0.42645867    -0.46980
C3380       C  0.56476297  0.86881917  0.60938932     0.42490
N3381       N  0.58827217  0.93532767  0.47973345    -0.46970
Co3382     Co  0.95377270  0.90551313  0.49992466     0.73890
C3383       C  0.92731778  0.90816478  0.58218494    -0.07300
C3384       C  0.98343645  0.78580202  0.50844410    -0.06860
N3385       N  0.58253123  0.88830909  0.49725888    -0.26390
N3386       N  0.92065151  0.81795784  0.51919542    -0.47150
H3387       H  0.51373118  0.86111741  0.62806552     0.06500
C3388       C  0.52435869  0.97143404  0.48972985    -0.07270
Cl3389     Cl  0.00491741  0.87695068  0.49853999    -0.50270
C3390       C  0.95270073  0.94397553  0.39772023     0.42260
H3391       H  0.62678857  0.88374781  0.52738541     0.06470
N3392       N  0.97720875  0.96932352  0.51976959    -0.46990
loop_ 
_geom_bond_atom_site_label_1 
_geom_bond_atom_site_label_2 
_geom_bond_distance 
_geom_bond_site_symmetry_2 
_ccdc_geom_bond_type 
C1           N19   1.314       .  A
C1           C38   1.488       .  S
C1          C743   1.471       .  S
N2           N19   1.306       .  A
N2           N24   1.309       .  A
N2          Co39   1.985       .  S
C3           N28   1.335       .  A
C3           C41   1.444       .  S
C3           H48   1.082       .  S
H4           C45   1.080       .  S
C5           N29   1.345       .  A
C5            C9   1.462       .  S
C5           H34   1.081       .  S
Co6          N24   2.132       .  S
Co6          N14   2.109       .  S
Co6          N46   2.086       .  S
Co6          N22   2.113       .  S
Co6         Cl50   2.489       .  S
N7           C45   1.326       .  A
N7           N14   1.332       .  A
N7           Co8   2.059       .  S
Co8          N11   2.121       .  S
Co8          N28   2.057       .  S
Co8          N15   2.114       .  S
Co8         Cl50   2.410       .  S
C9           N47   1.359       .  A
C9          C160   1.502       .  S
N10          N17   1.320       .  A
N10          N40   1.336       .  A
N10         Co43   2.094       .  S
N11          N29   1.311       .  A
N11          N47   1.337       .  A
N12          C41   1.354       .  A
N12          N22   1.330       .  A
H13          C38   1.082       .  S
N14          N35   1.322       .  A
N15          N33   1.322       .  A
N15          N20   1.332       .  A
C16          N20   1.357       .  A
C16          C44   1.456       .  S
C16         C213   1.476       .  S
N17          C32   1.337       .  A
N17         Co39   2.094       .  S
C18          N46   1.347       .  A
C18          C21   1.466       .  S
C18          H52   1.082       .  S
C21          N42   1.363       .  A
C21        C1803   1.505       .  S
N22          N28   1.325       .  A
N23          C49   1.320       .  A
N23          N25   1.313       .  A
N23         Co39   1.974       .  S
N24          C38   1.366       .  A
N25          N53   1.323       .  A
N25         Co43   2.097       .  S
H26          C49   1.082       .  S
H27          C44   1.081       .  S
N29         Co43   2.076       .  S
N30          N42   1.336       .  A
N30          N46   1.325       .  A
N30         Co39   2.180       .  S
C31          N35   1.350       .  A
C31          C45   1.430       .  S
C31          C94   1.429       .  S
C32          C51   1.444       .  S
C32          H36   1.077       .  S
N33          C44   1.339       .  A
N33         Co43   2.091       .  S
C37          N53   1.353       .  A
C37          C49   1.423       .  S
C37         C104   1.425       .  S
Co39        Cl50   2.390       .  S
N40          C51   1.353       .  A
C41         C372   1.472       .  S
Co43        Cl50   2.478       .  S
C51         C690   1.476       .  S
C54          N72   1.342       .  A
C54         C122   1.494   1_565  S
C54         C939   1.482       .  S
N55          N77   1.310       .  A
N55         N920   1.328       .  A
N55         Co92   2.065       .  S
C56          N81   1.327       .  A
C56          C94   1.431       .  S
C56         H101   1.081       .  S
H57          C98   1.076       .  S
C58          N82   1.363       .  A
C58          C62   1.497       .  S
C58          H87   1.082       .  S
Co59         N77   2.117       .  S
Co59         N67   2.094       .  S
Co59         N99   2.092       .  S
Co59         N75   2.095       .  S
Co59       Cl103   2.459       .  S
N60          C98   1.341       .  A
N60          N67   1.320       .  A
N60         Co61   2.093       .  S
Co61         N64   1.973       .  S
Co61         N81   1.980       .  S
Co61         N68   2.152       .  S
Co61       Cl103   2.400       .  S
C62         N100   1.310       .  A
C62         C846   1.462       .  S
N63          N70   1.330       .  A
N63          N93   1.318   1_565  A
N63        Co944   2.094       .  S
N64          N82   1.305       .  A
N64         N100   1.301       .  A
N65          C94   1.350       .  A
N65          N75   1.320       .  A
H66          C91   1.081       .  S
N67          N88   1.328       .  A
N68          N86   1.328       .  A
N68          N73   1.334       .  A
C69          N73   1.358       .  A
C69          C97   1.468       .  S
C69        C1871   1.498       .  S
N70          C85   1.329   1_565  A
N70        Co940   2.062       .  S
C71          N99   1.340       .  A
C71          C74   1.461       .  S
C71         H105   1.080       .  S
N72         N903   1.328       .  A
C74          N95   1.371       .  A
C74         C316   1.467       .  S
N75          N81   1.311       .  A
N76         C102   1.349       .  A
N76          N78   1.322       .  A
N76         Co92   2.033       .  S
N77          C91   1.357       .  A
N78         N106   1.325       .  A
N78         Co96   2.107       .  S
H79         C102   1.081       .  S
H80          C97   1.082       .  S
N82         Co96   2.133       .  S
N83          N95   1.331       .  A
N83          N99   1.318       .  A
N83         Co92   2.128       .  S
C84          N88   1.356       .  A
C84          C98   1.437       .  S
C84         C687   1.470       .  S
C85         C104   1.429       .  S
C85          H89   1.080       .  S
N86          C97   1.347       .  A
N86         Co96   2.107       .  S
C90         N106   1.357       .  A
C90         C102   1.450       .  S
C90        C1217   1.466       .  S
C91         C902   1.482       .  S
Co92        N918   2.062       .  S
Co92       Cl103   2.419       .  S
N93         C104   1.350       .  A
Co96        N911   2.094       .  S
Co96       Cl103   2.475       .  S
C107        N125   1.357       .  A
C107        C144   1.472       .  S
C107       C1717   1.505   1_455  S
N108        N125   1.334       .  A
N108        N130   1.325       .  A
N108       Co145   2.095       .  S
C109        N134   1.348       .  A
C109        C147   1.453       .  S
C109        H154   1.079       .  S
H110        C151   1.082       .  S
C111        N135   1.353       .  A
C111        C115   1.492       .  S
C111        H140   1.081       .  S
Co112       N130   2.162       .  S
Co112       N120   1.970       .  S
Co112       N152   1.974       .  S
Co112       N128   2.115       .  S
Co112      Cl156   2.362       .  S
N113        C151   1.348       .  A
N113        N120   1.312       .  A
N113       Co114   2.124       .  S
Co114       N117   2.029       .  S
Co114       N134   2.044       .  S
Co114       N121   2.144       .  S
Co114      Cl156   2.491       .  S
C115        N153   1.337       .  A
C115        C263   1.451       .  S
N116        N123   1.325       .  A
N116        N146   1.317       .  A
N116       Co149   2.022       .  S
N117        N135   1.313       .  A
N117        N153   1.315       .  A
N118        C147   1.341       .  A
N118        N128   1.319       .  A
H119        C144   1.082       .  S
N120        N141   1.309       .  A
N121        N139   1.312       .  A
N121        N126   1.339       .  A
C122        N126   1.369       .  A
C122        C998   1.443   1_545  S
N123        C138   1.358       .  A
N123       Co145   2.156       .  S
C124        N152   1.313       .  A
C124        C127   1.411       .  S
C124        H158   1.083       .  S
C127        N148   1.378       .  A
C127        C793   1.471       .  S
N128        N134   1.316       .  A
N129        C155   1.338       .  A
N129        N131   1.326       .  A
N129       Co993   2.073       .  S
N130        C144   1.353       .  A
N131        N159   1.319       .  A
N131       Co997   2.099       .  S
H132        C155   1.081       .  S
H133        C150   1.080       .  S
N135       Co149   2.133       .  S
N136        N148   1.338       .  A
N136        N152   1.308       .  A
N136       Co145   2.168       .  S
C137        N141   1.325       .  A
C137        C151   1.471       .  S
C137        C190   1.426       .  S
C138        C157   1.484       .  S
C138        H142   1.081       .  S
N139        C998   1.341   1_545  A
N139       Co149   2.057       .  S
C143        N159   1.343       .  A
C143        C155   1.455       .  S
C143        C196   1.440       .  S
Co145       N977   2.073   1_545  S
Co145      Cl156   2.513       .  S
N146        C157   1.328       .  A
C147        C637   1.462       .  S
Co149       N979   2.099   1_545  S
Co149      Cl156   2.382       .  S
C150        N987   1.341       .  A
C150        C970   1.443       .  S
C157       C1167   1.479   1_545  S
C160        N178   1.361       .  A
C160        C197   1.461       .  S
N161        N178   1.337       .  A
N161        N183   1.325       .  A
N161       Co198   2.116       .  S
C162        N187   1.358       .  A
C162        C200   1.460       .  S
C162        H207   1.076       .  S
H163        C204   1.081       .  S
C164        N188   1.358       .  A
C164        C168   1.493       .  S
C164        H193   1.082       .  S
Co165       N183   2.143       .  S
Co165       N173   1.982       .  S
Co165       N205   1.968       .  S
Co165       N181   2.119       .  S
Co165      Cl209   2.383       .  S
N166        C204   1.346       .  A
N166        N173   1.308       .  A
N166       Co167   2.101       .  S
Co167       N170   2.069       .  S
Co167       N187   2.086       .  S
Co167       N174   2.102       .  S
Co167      Cl209   2.482       .  S
C168        N206   1.344       .  A
C168        C422   1.468       .  S
N169        N176   1.324       .  A
N169        N199   1.320       .  A
N169       Co202   2.051       .  S
N170        N188   1.317       .  A
N170        N206   1.318       .  A
N171        C200   1.344       .  A
N171        N181   1.324       .  A
H172        C197   1.081       .  S
N173        N194   1.312       .  A
N174        N192   1.312       .  A
N174        N179   1.335       .  A
C175        N179   1.357       .  A
C175        C203   1.462       .  S
C175       C1765   1.498   1_455  S
N176        C191   1.356       .  A
N176       Co198   2.132       .  S
C177        N205   1.315       .  A
C177        C180   1.413       .  S
C177        H211   1.084       .  S
C180        N201   1.376       .  A
C180        C740   1.466       .  S
N181        N187   1.319       .  A
N182        C208   1.337       .  A
N182        N184   1.329       .  A
N182       Co198   2.088       .  S
N183        C197   1.346       .  A
N184        N212   1.319       .  A
N184       Co202   2.099       .  S
H185        C208   1.082       .  S
H186        C203   1.082       .  S
N188       Co202   2.137       .  S
N189        N201   1.338       .  A
N189        N205   1.307       .  A
N189       Co198   2.162       .  S
C190        N194   1.328       .  A
C190        C204   1.465       .  S
C191        C210   1.477       .  S
C191        H195   1.082       .  S
N192        C203   1.347       .  A
N192       Co202   2.095       .  S
C196        N212   1.345       .  A
C196        C208   1.456       .  S
Co198      Cl209   2.502       .  S
N199        C210   1.336       .  A
C200        C796   1.486       .  S
Co202      Cl209   2.402       .  S
C210        C266   1.483       .  S
C213        N231   1.343       .  A
C213        C250   1.466       .  S
N214        N231   1.323       .  A
N214        N236   1.318       .  A
N214       Co251   2.094       .  S
C215        N240   1.358       .  A
C215        C253   1.497       .  S
C215        H260   1.081       .  S
H216        C257   1.082       .  S
C217        N241   1.341       .  A
C217        C221   1.463       .  S
C217        H246   1.081       .  S
Co218       N236   2.089   1_556  S
Co218       N226   2.092       .  S
Co218       N258   2.091       .  S
Co218       N234   2.067       .  S
Co218      Cl262   2.491       .  S
N219        C257   1.336       .  A
N219        N226   1.309       .  A
N219       Co220   2.043       .  S
Co220       N223   2.103       .  S
Co220       N240   2.151       .  S
Co220       N227   2.025       .  S
Co220      Cl262   2.388       .  S
C221        N259   1.345   1_554  A
C221        C274   1.451       .  S
N222        N229   1.311       .  A
N222        N252   1.333       .  A
N222       Co255   2.114       .  S
N223        N241   1.330   1_556  A
N223        N259   1.319       .  A
N224        C253   1.343       .  A
N224        N234   1.319       .  A
H225        C250   1.081       .  S
N226        N247   1.331   1_556  A
N227        N245   1.323       .  A
N227        N232   1.326       .  A
C228        N232   1.340       .  A
C228        C256   1.475       .  S
C228        C531   1.454       .  S
N229        C244   1.314       .  A
N229       Co251   1.978       .  S
C230        N258   1.346       .  A
C230        C233   1.467       .  S
C230        H264   1.082       .  S
C233        N254   1.328   1_556  A
C233       C1134   1.424   1_545  S
N234        N240   1.319       .  A
N235        C261   1.344       .  A
N235        N237   1.326   1_554  A
N235       Co251   2.116       .  S
N236        C250   1.351       .  A
N237        N265   1.337       .  A
N237       Co255   2.141   1_556  S
H238        C261   1.082       .  S
H239        C256   1.081       .  S
N241       Co255   2.106       .  S
N242        N254   1.310       .  A
N242        N258   1.306   1_554  A
N242       Co251   1.981       .  S
C243        N247   1.359   1_556  A
C243        C257   1.441       .  S
C243        C402   1.466       .  S
C244        C263   1.418       .  S
C244        H248   1.083       .  S
N245        C256   1.347       .  A
N245       Co255   2.110   1_556  S
C249        N265   1.368       .  A
C249        C261   1.451   1_556  S
C249        C349   1.499       .  S
Co251      Cl262   2.379   1_554  S
N252        C263   1.360       .  A
C253        C425   1.467       .  S
Co255      Cl262   2.481   1_554  S
C266        N284   1.343       .  A
C266        C303   1.463       .  S
N267        N284   1.330       .  A
N267        N289   1.318       .  A
N267       Co304   2.098       .  S
C268        N293   1.362       .  A
C268        C306   1.487       .  S
C268        H313   1.081       .  S
H269        C310   1.081       .  S
C270        N294   1.340       .  A
C270        C274   1.461       .  S
C270        H299   1.081       .  S
Co271       N289   2.087   1_556  S
Co271       N279   2.098       .  S
Co271       N311   2.098       .  S
Co271       N287   2.066       .  S
Co271      Cl315   2.493       .  S
N272        C310   1.339       .  A
N272        N279   1.313       .  A
N272       Co273   2.070       .  S
Co273       N276   2.106       .  S
Co273       N293   2.157       .  S
Co273       N280   2.044       .  S
Co273      Cl315   2.407       .  S
C274        N312   1.346   1_554  A
N275        N282   1.307       .  A
N275        N305   1.339       .  A
N275       Co308   2.150       .  S
N276        N294   1.330   1_556  A
N276        N312   1.321       .  A
N277        C306   1.337       .  A
N277        N287   1.318       .  A
H278        C303   1.079       .  S
N279        N300   1.333   1_556  A
N280        N298   1.329       .  A
N280        N285   1.331       .  A
C281        N285   1.338       .  A
C281        C309   1.474       .  S
C281        C478   1.476       .  S
N282        C297   1.313       .  A
N282       Co304   1.971       .  S
C283        N311   1.346       .  A
C283        C286   1.469       .  S
C283        H317   1.080       .  S
C286        N307   1.328   1_556  A
C286       C1081   1.424       .  S
N287        N293   1.324       .  A
N288        C314   1.348       .  A
N288        N290   1.325   1_554  A
N288       Co304   2.131       .  S
N289        C303   1.346       .  A
N290        N318   1.337       .  A
N290       Co308   2.137   1_556  S
H291        C314   1.082       .  S
H292        C309   1.081       .  S
N294       Co308   2.099       .  S
N295        N307   1.311       .  A
N295        N311   1.310   1_554  A
N295       Co304   1.985       .  S
C296        N300   1.359   1_556  A
C296        C310   1.449       .  S
C296        C408   1.481   1_556  S
C297        C316   1.414       .  S
C297        H301   1.083       .  S
N298        C309   1.345       .  A
N298       Co308   2.135   1_556  S
C302        N318   1.367       .  A
C302        C314   1.459   1_556  S
C302        C355   1.506       .  S
Co304      Cl315   2.380   1_554  S
N305        C316   1.372       .  A
C306        C634   1.485       .  S
Co308      Cl315   2.501   1_554  S
C319        N337   1.334       .  A
C319        C356   1.470       .  S
C319       C1005   1.479       .  S
N320        N337   1.325       .  A
N320        N342   1.319       .  A
N320      Co2053   2.095   1_455  S
C321        N346   1.353       .  A
C321        C359   1.489       .  S
C321       H1214   1.082       .  S
H322        C363   1.082       .  S
C323        N347   1.344       .  A
C323        C327   1.468       .  S
C323        H352   1.081       .  S
Co324       N342   2.093   1_556  S
Co324       N364   2.106       .  S
Co324       N340   2.072       .  S
Co324      N1180   2.131       .  S
Co324      Cl368   2.487       .  S
N325        C363   1.346       .  A
N325        N332   1.313       .  A
N325       Co326   2.074       .  S
Co326       N329   2.094       .  S
Co326      N1194   2.129   1_545  S
Co326      N2029   2.035   1_455  S
Co326     Cl1216   2.399   1_545  S
C327       N2061   1.343   1_554  A
C327       C2076   1.455       .  S
N328        N358   1.339       .  A
N328       N1183   1.306   1_545  A
N328       Co361   2.155       .  S
N329        N365   1.320       .  A
N329       N2043   1.330   1_456  A
N330        C359   1.346       .  A
N330        N340   1.321       .  A
H331        C356   1.081       .  S
N332        N353   1.336   1_556  A
N332      Co1172   2.131   1_545  S
N333        N351   1.324       .  A
N333        N338   1.321       .  A
N333      Co2022   2.035       .  S
C334        N338   1.333       .  A
C334        C362   1.475       .  S
C334        C475   1.473       .  S
N335       C1198   1.311       .  A
N335       N1176   1.306       .  A
N335       Co357   1.971       .  S
C336        N364   1.346       .  A
C336        C339   1.468       .  S
C336        H370   1.081       .  S
C339        N360   1.327   1_456  A
C339       C2088   1.424       .  S
N340        N346   1.317       .  A
N341        C367   1.350       .  A
N341        N343   1.323       .  A
N341       Co357   2.134       .  S
N342        C356   1.349       .  A
N343        N371   1.336   1_554  A
N343      Co1209   2.128       .  S
H344        C367   1.081       .  S
H345        C362   1.081       .  S
N346      Co1174   2.129       .  S
N347       N2025   1.330   1_554  A
N347       Co361   2.119       .  S
N348        N360   1.310   1_455  A
N348        N364   1.309   1_554  A
N348      Co2053   1.976   1_455  S
C349        N353   1.366   1_556  A
C349        C363   1.452       .  S
C350       N1183   1.311       .  A
C350        C369   1.406   1_565  S
C350       H1202   1.083       .  S
N351        C362   1.349       .  A
N351       Co361   2.128   1_556  S
H354       C1198   1.083       .  S
C355        N371   1.365       .  A
C355        C367   1.463   1_556  S
Co357      N2016   2.095       .  S
Co357      N2044   1.976       .  S
Co357     Cl2064   2.374   1_554  S
N358        C369   1.377       .  A
C359        C584   1.462       .  S
Co361      N1191   2.128   1_545  S
Co361     Cl2912   2.506   1_544  S
N365       C2023   1.343   1_556  A
H366       C1169   1.082       .  S
Cl368     Co1174   2.399       .  S
Cl368     Co2053   2.373   1_456  S
Cl368     Co2905   2.506   1_456  S
C369        C938   1.466   1_545  S
C372        N390   1.344       .  A
C372        C409   1.456       .  S
N373        N390   1.327       .  A
N373        N395   1.316       .  A
N373      Co2106   2.087       .  S
C374        N399   1.358       .  A
C374        C412   1.479       .  S
C374        H419   1.081       .  S
H375        C416   1.081       .  S
C376        N400   1.344       .  A
C376        C380   1.466       .  S
C376        H405   1.082       .  S
Co377       N395   2.071   1_556  S
Co377       N385   2.095       .  S
Co377       N417   2.096       .  S
Co377       N393   2.055       .  S
Co377     Cl2117   2.489       .  S
N378        C416   1.340       .  A
N378        N385   1.312       .  A
N378       Co379   2.062       .  S
Co379       N399   2.132       .  S
Co379      N2078   2.099       .  S
Co379      N2082   2.028       .  S
Co379     Cl2117   2.386       .  S
C380        N418   1.342   1_454  A
C380       C2023   1.455       .  S
N381        N388   1.311       .  A
N381        N411   1.338       .  A
N381       Co414   2.144       .  S
N382        N400   1.328   1_556  A
N382        N418   1.320   1_455  A
N382      Co2075   2.099   1_455  S
N383        C412   1.338       .  A
N383        N393   1.315       .  A
H384        C409   1.078       .  S
N385        N406   1.328   1_556  A
N386        N404   1.323       .  A
N386        N391   1.319       .  A
N386      Co2075   2.028   1_455  S
C387        N391   1.332       .  A
C387        C415   1.473       .  S
C387        C581   1.470       .  S
N388        C403   1.316       .  A
N388       Co410   1.988       .  S
C389        N417   1.346       .  A
C389        C392   1.467       .  S
C389        H423   1.080       .  S
C392       N2109   1.327   1_556  A
C392       C2035   1.424       .  S
N393        N399   1.320       .  A
N394        C420   1.348       .  A
N394        N396   1.323       .  A
N394       Co410   2.132       .  S
N395        C409   1.341       .  A
N396        N424   1.328   1_554  A
N396       Co414   2.089       .  S
H397        C420   1.082       .  S
H398        C415   1.081       .  S
N400       Co414   2.103       .  S
N401        N417   1.312   1_554  A
N401       N2109   1.311       .  A
N401      Co2106   1.996       .  S
C402        N406   1.357   1_556  A
C402        C416   1.447       .  S
C403        C422   1.416       .  S
C403        H407   1.083       .  S
N404        C415   1.350       .  A
N404       Co414   2.126   1_556  S
C408        N424   1.356   1_554  A
C408        C420   1.457       .  S
Co410      N2069   2.087   1_455  S
Co410      N2097   1.996   1_455  S
Co410      Cl421   2.362   1_554  S
N411        C422   1.368       .  A
C412        C528   1.473       .  S
N413       C2088   1.327   1_554  A
N413       N2097   1.311   1_455  A
Co414      Cl421   2.502   1_554  S
Cl421     Co2073   2.489   1_455  S
Cl421     Co2075   2.386   1_455  S
C425        N443   1.313       .  A
C425        C462   1.487       .  S
N426        N443   1.304       .  A
N426        N448   1.308       .  A
N426       Co463   1.985       .  S
C427        N452   1.348       .  A
C427        C465   1.444       .  S
C427        H472   1.081       .  S
H428        C469   1.080       .  S
C429        N453   1.351       .  A
C429       C1281   1.470       .  S
C429        H458   1.081       .  S
Co430       N448   2.126       .  S
Co430       N470   2.124       .  S
Co430       N446   2.105       .  S
Co430      N1286   2.128       .  S
Co430      Cl474   2.485       .  S
N431        C469   1.327       .  A
N431        N438   1.333       .  A
N431      Co1280   2.066       .  S
Co432       N435   2.089       .  S
Co432       N452   2.040       .  S
Co432       N439   2.133       .  S
Co432      N1279   2.066       .  S
Co432      Cl474   2.428       .  S
C433        N471   1.349       .  A
C433       C1277   1.470       .  S
C433       C3148   1.493       .  S
N434        N441   1.319       .  A
N434        N464   1.331       .  A
N434       Co467   2.115       .  S
N435        N453   1.311       .  A
N435       N1319   1.330       .  A
N436        C465   1.353       .  A
N436        N446   1.323       .  A
H437       C1310   1.082       .  S
N438        N459   1.325       .  A
N438      Co1278   2.128       .  S
N439        N457   1.325       .  A
N439        N444   1.337       .  A
C440        N444   1.363       .  A
C440        C468   1.454       .  S
C440        C783   1.486       .  S
N441        C456   1.339       .  A
N441       Co463   2.071       .  S
C442        N470   1.354       .  A
C442        C445   1.480       .  S
C442        H476   1.082       .  S
C445        N466   1.355       .  A
C445        C551   1.507       .  S
N446        N452   1.325       .  A
N447        C473   1.319       .  A
N447        N449   1.311       .  A
N447       Co463   1.967       .  S
N448        C462   1.365       .  A
N449        N477   1.324       .  A
N449       Co467   2.095       .  S
H450        C473   1.081       .  S
H451        C468   1.080       .  S
N453       Co467   2.091       .  S
N454        N466   1.333       .  A
N454        N470   1.327       .  A
N454       Co463   2.153       .  S
C455        N459   1.355       .  A
C455        C469   1.432       .  S
C455        C514   1.441       .  S
C456        C475   1.434       .  S
C456        H460   1.076       .  S
N457        C468   1.337       .  A
N457       Co467   2.100       .  S
C461        N477   1.353       .  A
C461        C473   1.421       .  S
C461        C508   1.425       .  S
C462       H1285   1.082       .  S
Co463      Cl474   2.395       .  S
N464        C475   1.360       .  A
C465       C1500   1.460   1_545  S
Co467      Cl474   2.463       .  S
N471       N1283   1.330       .  A
C478        N496   1.312       .  A
C478        C515   1.499       .  S
N479        N496   1.305       .  A
N479        N501   1.307       .  A
N479       Co516   1.999       .  S
C480        N505   1.342       .  A
C480        C518   1.447       .  S
C480        H525   1.082       .  S
H481        C522   1.079       .  S
C482        N506   1.356       .  A
C482        C486   1.476       .  S
C482        H511   1.081       .  S
Co483       N501   2.152       .  S
Co483       N491   2.088       .  S
Co483       N523   2.063       .  S
Co483       N499   2.133       .  S
Co483      Cl527   2.490       .  S
N484        C522   1.330       .  A
N484        N491   1.329       .  A
N484       Co485   2.061       .  S
Co485       N488   2.099       .  S
Co485       N505   2.053       .  S
Co485       N492   2.123       .  S
Co485      Cl527   2.415       .  S
C486        N524   1.351       .  A
C486       C2235   1.503       .  S
N487        N494   1.317       .  A
N487        N517   1.334       .  A
N487       Co520   2.084       .  S
N488        N506   1.312       .  A
N488        N524   1.333       .  A
N489        C518   1.359       .  A
N489        N499   1.333       .  A
H490        C515   1.082       .  S
N491        N512   1.317       .  A
N492        N510   1.317       .  A
N492        N497   1.331       .  A
C493        N497   1.368       .  A
C493        C521   1.459       .  S
C493        C811   1.460       .  S
N494        C509   1.335       .  A
N494       Co516   2.095       .  S
C495        N523   1.341       .  A
C495        C498   1.457       .  S
C495        H529   1.082       .  S
C498        N519   1.359       .  A
C498        C592   1.485       .  S
N499        N505   1.324       .  A
N500        C526   1.330       .  A
N500        N502   1.313       .  A
N500       Co516   1.988       .  S
N501        C515   1.365       .  A
N502        N530   1.323       .  A
N502       Co520   2.119       .  S
H503        C526   1.081       .  S
H504        C521   1.079       .  S
N506       Co520   2.112       .  S
N507        N519   1.333       .  A
N507        N523   1.325       .  A
N507       Co516   2.167       .  S
C508        N512   1.349       .  A
C508        C522   1.430       .  S
C509        C528   1.445       .  S
C509        H513   1.079       .  S
N510        C521   1.340       .  A
N510       Co520   2.082       .  S
C514        N530   1.354       .  A
C514        C526   1.433       .  S
Co516      Cl527   2.387       .  S
N517        C528   1.353       .  A
C518        C730   1.490       .  S
Co520      Cl527   2.464       .  S
C531        N549   1.308       .  A
C531        C568   1.498       .  S
N532        N549   1.298       .  A
N532        N554   1.307       .  A
N532       Co569   1.965       .  S
C533        N558   1.340       .  A
C533        C571   1.444       .  S
C533        H578   1.082       .  S
H534        C575   1.081       .  S
C535        N559   1.365       .  A
C535        C539   1.494       .  S
C535        H564   1.082       .  S
Co536       N554   2.140       .  S
Co536       N544   2.093       .  S
Co536       N576   2.135       .  S
Co536       N552   2.125       .  S
Co536      Cl580   2.499       .  S
N537        C575   1.333       .  A
N537        N544   1.328       .  A
N537       Co538   2.095       .  S
Co538       N541   2.048       .  S
Co538       N558   2.026       .  S
Co538       N545   2.160       .  S
Co538      Cl580   2.394       .  S
C539        N577   1.337       .  A
C539       C2182   1.503   1_455  S
N540        N547   1.319       .  A
N540        N570   1.327       .  A
N540       Co573   2.076       .  S
N541        N559   1.313       .  A
N541        N577   1.324       .  A
N542        C571   1.363       .  A
N542        N552   1.330       .  A
H543        C568   1.081       .  S
N544        N565   1.323       .  A
N545        N563   1.316       .  A
N545        N550   1.335       .  A
C546        N550   1.377       .  A
C546        C574   1.440       .  S
C546        C758   1.459       .  S
N547        C562   1.342       .  A
N547       Co569   2.106       .  S
C548        N576   1.357       .  A
C548        C551   1.481       .  S
C548        H582   1.081       .  S
C551        N572   1.351       .  A
N552        N558   1.323       .  A
N553        C579   1.323       .  A
N553        N555   1.308       .  A
N553       Co569   1.967       .  S
N554        C568   1.362       .  A
N555        N583   1.325       .  A
N555       Co573   2.125       .  S
H556        C579   1.078       .  S
H557        C574   1.081       .  S
N559       Co573   2.150       .  S
N560        N572   1.332       .  A
N560        N576   1.325       .  A
N560       Co569   2.135       .  S
C561        N565   1.351       .  A
C561        C575   1.449       .  S
C561        C614   1.445       .  S
C562        C581   1.439       .  S
C562        H566   1.076       .  S
N563        C574   1.331       .  A
N563       Co573   2.042       .  S
C567        N583   1.358       .  A
C567        C579   1.425       .  S
C567        C620   1.427       .  S
Co569      Cl580   2.390       .  S
N570        C581   1.354       .  A
C571        C705   1.456       .  S
Co573      Cl580   2.481       .  S
C584        N602   1.316       .  A
C584        C621   1.487       .  S
N585        N602   1.304       .  A
N585        N607   1.311       .  A
N585       Co622   1.986       .  S
C586        N611   1.338       .  A
C586        C624   1.444       .  S
C586        H631   1.082       .  S
H587        C628   1.081       .  S
C588        N612   1.347       .  A
C588        C592   1.459       .  S
C588        H617   1.081       .  S
Co589       N607   2.137       .  S
Co589       N597   2.093       .  S
Co589       N629   2.095       .  S
Co589       N605   2.116       .  S
Co589      Cl633   2.490       .  S
N590        C628   1.336       .  A
N590        N597   1.330       .  A
N590       Co591   2.102       .  S
Co591       N594   2.110       .  S
Co591       N611   2.057       .  S
Co591       N598   2.149       .  S
Co591      Cl633   2.415       .  S
C592        N630   1.355       .  A
N593        N600   1.318       .  A
N593        N623   1.335       .  A
N593       Co626   2.086       .  S
N594        N612   1.312       .  A
N594        N630   1.330       .  A
N595        C624   1.356       .  A
N595        N605   1.330       .  A
H596        C621   1.082       .  S
N597        N618   1.322       .  A
N598        N616   1.321       .  A
N598        N603   1.340       .  A
C599        N603   1.367       .  A
C599        C627   1.439       .  S
C599       C1525   1.480       .  S
N600        C615   1.342       .  A
N600       Co622   2.105       .  S
C601        N629   1.350       .  A
C601       C1452   1.471       .  S
C601        H635   1.082       .  S
C604        N625   1.350   1_565  A
C604       C2977   1.493   1_465  S
C604       C1449   1.471       .  S
N605        N611   1.323       .  A
N606        C632   1.324       .  A
N606        N608   1.309       .  A
N606      Co1470   1.982   1_545  S
N607        C621   1.362       .  A
N608        N636   1.325       .  A
N608      Co1474   2.103   1_545  S
H609        C632   1.078       .  S
H610       C1475   1.080   1_545  S
N612       Co626   2.067       .  S
N613        N629   1.324       .  A
N613       N1473   1.330       .  A
N613       Co622   2.149       .  S
C614        N618   1.348       .  A
C614        C628   1.453       .  S
C615        C634   1.450       .  S
C615        H619   1.077       .  S
N616        C627   1.329       .  A
N616       Co626   2.061       .  S
C620        N636   1.355       .  A
C620        C632   1.424       .  S
Co622      N1454   1.982       .  S
Co622      Cl633   2.396       .  S
N623        C634   1.352       .  A
C624        C836   1.475       .  S
N625       N1461   1.330   1_545  A
Co626      N1456   2.103       .  S
Co626      Cl633   2.467       .  S
C627       H1458   1.080       .  S
C637        N655   1.361       .  A
C637        C674   1.439       .  S
N638        N655   1.333       .  A
N638        N660   1.319       .  A
N638      Co1523   2.126   1_545  S
C639        N664   1.337       .  A
C639        C677   1.446       .  S
C639        H684   1.076       .  S
H640        C681   1.074       .  S
C641        N665   1.350       .  A
C641        C645   1.472       .  S
C641        H670   1.081       .  S
Co642       N660   2.047       .  S
Co642       N650   2.132       .  S
Co642       N658   2.079       .  S
Co642      N1530   2.084   1_545  S
Co642      Cl686   2.469       .  S
N643        C681   1.323       .  A
N643        N650   1.311       .  A
N643       Co644   1.983       .  S
Co644       N647   2.142       .  S
Co644       N664   2.093       .  S
Co644      N1499   1.995       .  S
Co644      Cl686   2.390       .  S
C645        N683   1.350       .  A
C645        C763   1.495       .  S
N646        N653   1.322       .  A
N646        N676   1.330       .  A
N646       Co679   2.132       .  S
N647        N665   1.323       .  A
N647        N683   1.331       .  A
N648        C677   1.352       .  A
N648        N658   1.335       .  A
H649        C674   1.082       .  S
N650        N671   1.330       .  A
N651        N669   1.311       .  A
N651        N656   1.302       .  A
N651      Co1492   1.995       .  S
C652        N656   1.314       .  A
C652        C680   1.490       .  S
C652       C1313   1.460       .  S
N653        C668   1.334       .  A
N653       Co675   2.029       .  S
C654        N682   1.346       .  A
C654        C657   1.467       .  S
C654        H688   1.082       .  S
C657        N678   1.341       .  A
C657        C816   1.460       .  S
N658        N664   1.315       .  A
N659        C685   1.335       .  A
N659        N661   1.326       .  A
N659       Co675   2.092       .  S
N660        C674   1.329       .  A
N661        N689   1.324       .  A
N661       Co679   2.091       .  S
H662        C685   1.081       .  S
H663        C680   1.081       .  S
N665      Co1527   2.097   1_545  S
N666        N678   1.322       .  A
N666        N682   1.312       .  A
N666       Co675   2.062       .  S
C667        N671   1.364       .  A
C667        C681   1.422       .  S
C667        C720   1.437       .  S
C668        C687   1.435       .  S
C668        H672   1.082       .  S
N669        C680   1.359       .  A
N669       Co679   2.138       .  S
C673        N689   1.351       .  A
C673        C685   1.448       .  S
C673        C726   1.447       .  S
Co675      N1486   2.126       .  S
Co675     Cl1534   2.397       .  S
N676        C687   1.360       .  A
C677       C1447   1.481   1_545  S
Co679      N1513   2.097       .  S
Co679     Cl1534   2.493       .  S
N682      Co1490   2.084       .  S
Cl686     Co1523   2.397   1_545  S
Cl686     Co1527   2.493   1_545  S
C690        N708   1.370       .  A
C690        C727   1.438       .  S
N691        N708   1.339       .  A
N691        N713   1.320       .  A
N691       Co728   2.149       .  S
C692        N717   1.350       .  A
C692        C730   1.448       .  S
C692        H737   1.075       .  S
H693        C734   1.078       .  S
C694        N718   1.360       .  A
C694        C698   1.487       .  S
C694        H723   1.081       .  S
Co695       N713   2.052       .  S
Co695       N703   2.134       .  S
Co695       N735   2.123       .  S
Co695       N711   2.088       .  S
Co695      Cl739   2.469       .  S
N696        C734   1.325       .  A
N696        N703   1.308       .  A
N696       Co697   1.975       .  S
Co697       N700   2.138       .  S
Co697       N717   2.117       .  S
Co697       N704   1.967       .  S
Co697      Cl739   2.420       .  S
C698        N736   1.351       .  A
C698        C751   1.516       .  S
N699        N706   1.326       .  A
N699        N729   1.327       .  A
N699       Co732   2.131       .  S
N700        N718   1.325       .  A
N700        N736   1.333       .  A
N701        C730   1.354       .  A
N701        N711   1.330       .  A
H702        C727   1.082       .  S
N703        N724   1.329       .  A
N704        N722   1.308       .  A
N704        N709   1.301       .  A
C705        N709   1.311       .  A
C705        C733   1.498       .  S
N706        C721   1.343       .  A
N706       Co728   2.040       .  S
C707        N735   1.356       .  A
C707        C710   1.482       .  S
C707        H741   1.082       .  S
C710        N731   1.342       .  A
C710        C804   1.496       .  S
N711        N717   1.318       .  A
N712        C738   1.333       .  A
N712        N714   1.330       .  A
N712       Co728   2.093       .  S
N713        C727   1.327       .  A
N714        N742   1.324       .  A
N714       Co732   2.106       .  S
H715        C738   1.081       .  S
H716        C733   1.081       .  S
N718       Co732   2.152       .  S
N719        N731   1.327       .  A
N719        N735   1.313       .  A
N719       Co728   2.064       .  S
C720        N724   1.364       .  A
C720        C734   1.424       .  S
C721        C740   1.443       .  S
C721        H725   1.081       .  S
N722        C733   1.362       .  A
N722       Co732   2.147       .  S
C726        N742   1.353       .  A
C726        C738   1.447       .  S
Co728      Cl739   2.421       .  S
N729        C740   1.361       .  A
Co732      Cl739   2.478       .  S
C743        N761   1.375       .  A
C743        C780   1.449       .  S
N744        N761   1.338       .  A
N744        N766   1.318       .  A
N744       Co781   2.156       .  S
C745        N770   1.340       .  A
C745        C783   1.447       .  S
C745        H790   1.077       .  S
H746        C787   1.075       .  S
C747        N771   1.361       .  A
C747        C751   1.490       .  S
C747        H776   1.081       .  S
Co748       N766   2.075       .  S
Co748       N756   2.105       .  S
Co748       N788   2.103       .  S
Co748       N764   2.099       .  S
Co748      Cl792   2.478       .  S
N749        C787   1.322       .  A
N749       N2452   1.305   1_455  A
N749       Co750   1.965       .  S
Co750       N753   2.141       .  S
Co750       N757   1.969       .  S
Co750      N2466   2.105   1_455  S
Co750     Cl2488   2.389   1_455  S
C751        N789   1.349       .  A
N752        N759   1.323       .  A
N752        N782   1.327       .  A
N752       Co785   2.123       .  S
N753        N771   1.327       .  A
N753        N789   1.332       .  A
N754        C783   1.358       .  A
N754        N764   1.336       .  A
H755        C780   1.079       .  S
N756        N777   1.325       .  A
N756       N2445   1.305       .  A
N757        N775   1.314       .  A
N757        N762   1.306       .  A
C758        N762   1.314       .  A
C758        C786   1.483       .  S
N759        C774   1.346       .  A
N759      Co2477   2.030   1_455  S
C760        N788   1.354       .  A
C760        C763   1.476       .  S
C760        H794   1.082       .  S
C763        N784   1.347       .  A
N764        N770   1.320       .  A
N765        C791   1.335       .  A
N765       N2463   1.333       .  A
N765       Co781   2.102       .  S
N766        C780   1.335       .  A
N767        N795   1.325       .  A
N767       N2461   1.333   1_455  A
N767       Co785   2.123       .  S
H768        C791   1.082       .  S
H769        C786   1.081       .  S
N770      Co2446   2.105       .  S
N771       Co785   2.150       .  S
N772        N784   1.329       .  A
N772        N788   1.311       .  A
N772       Co781   2.079       .  S
C773        N777   1.357       .  A
C773       C2483   1.421       .  S
C773       C2522   1.423       .  S
C774        C793   1.443       .  S
C774        H778   1.081       .  S
N775        C786   1.362       .  A
N775       Co785   2.136       .  S
C779        N795   1.354       .  A
C779       C2487   1.450   1_455  S
C779       C3376   1.454   1_545  S
Co781      N2455   2.030       .  S
Co781      Cl792   2.411       .  S
N782        C793   1.362       .  A
Co785     Cl2488   2.490   1_455  S
C787       C2469   1.421   1_455  S
C791       C2475   1.451       .  S
Cl792     Co2446   2.389       .  S
Cl792     Co2481   2.490       .  S
C796        N814   1.371       .  A
C796        C833   1.438       .  S
N797        N814   1.341       .  A
N797        N819   1.321       .  A
N797       Co834   2.164       .  S
C798        N823   1.345       .  A
C798        C836   1.445       .  S
C798        H843   1.077       .  S
H799        C840   1.077       .  S
C800        N824   1.355       .  A
C800        C804   1.482       .  S
C800        H829   1.081       .  S
Co801       N819   2.055       .  S
Co801       N809   2.096       .  S
Co801       N841   2.080       .  S
Co801       N817   2.083       .  S
Co801     Cl2541   2.484       .  S
N802        C840   1.324       .  A
N802       N2505   1.310       .  A
N802       Co803   1.993       .  S
Co803       N806   2.122       .  S
Co803       N810   1.982       .  S
Co803      N2519   2.088       .  S
Co803      Cl845   2.400       .  S
C804        N842   1.343       .  A
N805        N812   1.325       .  A
N805        N835   1.327       .  A
N805       Co838   2.130       .  S
N806        N824   1.325       .  A
N806        N842   1.328       .  A
N807        C836   1.351       .  A
N807        N817   1.328       .  A
H808        C833   1.082       .  S
N809        N830   1.325       .  A
N809       N2498   1.309       .  A
N810        N828   1.310       .  A
N810        N815   1.303       .  A
C811        N815   1.317       .  A
C811        C839   1.488       .  S
N812        C827   1.345       .  A
N812      Co2530   2.034       .  S
C813        N841   1.348       .  A
C813        C816   1.468       .  S
C813        H847   1.082       .  S
C816        N837   1.338       .  A
N817        N823   1.316       .  A
N818        C844   1.337       .  A
N818       N2516   1.329   1_455  A
N818       Co834   2.108       .  S
N819        C833   1.331       .  A
N820        N848   1.324       .  A
N820       N2514   1.329       .  A
N820       Co838   2.100       .  S
H821        C844   1.081       .  S
H822        C839   1.081       .  S
N823      Co2499   2.088   1_455  S
N824       Co838   2.128       .  S
N825        N837   1.320       .  A
N825        N841   1.312       .  A
N825       Co834   2.054       .  S
C826        N830   1.356       .  A
C826       C2469   1.423   1_455  S
C826       C2536   1.424   1_455  S
C827        C846   1.445       .  S
C827        H831   1.082       .  S
N828        C839   1.360       .  A
N828       Co838   2.134       .  S
C832        N848   1.352       .  A
C832       C3323   1.454       .  S
C832       C2540   1.452       .  S
Co834      N2508   2.034   1_455  S
Co834     Cl2541   2.401       .  S
N835        C846   1.361       .  A
Co838      Cl845   2.480       .  S
C840       C2522   1.424       .  S
C844       C2528   1.452       .  S
Cl845     Co2497   2.484       .  S
Cl845     Co2530   2.401       .  S
C849        N867   1.314       .  A
C849        C886   1.488       .  S
C849       C1591   1.471       .  S
N850        N867   1.306       .  A
N850        N872   1.309       .  A
N850       Co887   1.985       .  S
C851        N876   1.335       .  A
C851        C889   1.444       .  S
C851        H896   1.082       .  S
H852        C893   1.080       .  S
C853        N877   1.345       .  A
C853        C857   1.462       .  S
C853        H882   1.081       .  S
Co854       N872   2.132       .  S
Co854       N862   2.109       .  S
Co854       N894   2.086       .  S
Co854       N870   2.113       .  S
Co854      Cl898   2.489       .  S
N855        C893   1.326       .  A
N855        N862   1.332       .  A
N855       Co856   2.059       .  S
Co856       N859   2.121       .  S
Co856       N876   2.057       .  S
Co856       N863   2.114       .  S
Co856      Cl898   2.410       .  S
C857        N895   1.359       .  A
C857       C1008   1.502       .  S
N858        N865   1.320       .  A
N858        N888   1.336       .  A
N858       Co891   2.095       .  S
N859        N877   1.311       .  A
N859        N895   1.337       .  A
N860        C889   1.354       .  A
N860        N870   1.330       .  A
H861        C886   1.082       .  S
N862        N883   1.322       .  A
N863        N881   1.322       .  A
N863        N868   1.332       .  A
C864        N868   1.357       .  A
C864        C892   1.456       .  S
C864       C1061   1.476       .  S
N865        C880   1.337       .  A
N865       Co887   2.095       .  S
C866        N894   1.347       .  A
C866        C869   1.466       .  S
C866        H900   1.082       .  S
C869        N890   1.363       .  A
C869       C2651   1.505       .  S
N870        N876   1.325       .  A
N871        C897   1.320       .  A
N871        N873   1.313       .  A
N871       Co887   1.974       .  S
N872        C886   1.366       .  A
N873        N901   1.323       .  A
N873       Co891   2.097       .  S
H874        C897   1.082       .  S
H875        C892   1.081       .  S
N877       Co891   2.076       .  S
N878        N890   1.336       .  A
N878        N894   1.325       .  A
N878       Co887   2.181       .  S
C879        N883   1.350       .  A
C879        C893   1.430       .  S
C879        C942   1.429       .  S
C880        C899   1.444       .  S
C880        H884   1.077       .  S
N881        C892   1.339       .  A
N881       Co891   2.091       .  S
C885        N901   1.353       .  A
C885        C897   1.423       .  S
C885        C952   1.425       .  S
Co887      Cl898   2.390       .  S
N888        C899   1.354       .  A
C889       C1220   1.472       .  S
Co891      Cl898   2.478       .  S
C899       C1538   1.477       .  S
C902        N920   1.342       .  A
C902        C970   1.494       .  S
N903        N925   1.310       .  A
N903       Co940   2.066       .  S
C904        N929   1.327       .  A
C904        C942   1.431       .  S
C904        H949   1.081       .  S
H905        C946   1.076       .  S
C906        N930   1.363       .  A
C906        C910   1.497       .  S
C906        H935   1.082       .  S
Co907       N925   2.117       .  S
Co907       N915   2.094       .  S
Co907       N947   2.092       .  S
Co907       N923   2.095       .  S
Co907      Cl951   2.459       .  S
N908        C946   1.341       .  A
N908        N915   1.320       .  A
N908       Co909   2.093       .  S
Co909       N912   1.973       .  S
Co909       N929   1.980       .  S
Co909       N916   2.153       .  S
Co909      Cl951   2.400       .  S
C910        N948   1.310       .  A
C910       C1694   1.462       .  S
N911        N918   1.330       .  A
N911        N941   1.318       .  A
N912        N930   1.305       .  A
N912        N948   1.301       .  A
N913        C942   1.350       .  A
N913        N923   1.320       .  A
H914        C939   1.081       .  S
N915        N936   1.328       .  A
N916        N934   1.328       .  A
N916        N921   1.334       .  A
C917        N921   1.358       .  A
C917        C945   1.468       .  S
C917       C2719   1.498       .  S
N918        C933   1.329       .  A
C919        N947   1.341       .  A
C919        C922   1.461       .  S
C919        H953   1.080       .  S
C922        N943   1.371       .  A
C922       C1164   1.467       .  S
N923        N929   1.311       .  A
N924        C950   1.349       .  A
N924        N926   1.323       .  A
N924       Co940   2.033       .  S
N925        C939   1.357       .  A
N926        N954   1.325       .  A
N926       Co944   2.108       .  S
H927        C950   1.081       .  S
H928        C945   1.082       .  S
N930       Co944   2.133       .  S
N931        N943   1.331       .  A
N931        N947   1.318       .  A
N931       Co940   2.128       .  S
C932        N936   1.356       .  A
C932        C946   1.437       .  S
C932       C1535   1.470       .  S
C933        C952   1.429       .  S
C933        H937   1.080       .  S
N934        C945   1.347       .  A
N934       Co944   2.107       .  S
C938        N954   1.357       .  A
C938        C950   1.450       .  S
Co940      Cl951   2.419       .  S
N941        C952   1.350       .  A
Co944      Cl951   2.475       .  S
C955        N973   1.357       .  A
C955       C2565   1.505   1_455  S
C955        C992   1.472       .  S
N956        N973   1.334       .  A
N956        N978   1.325       .  A
N956       Co993   2.095       .  S
C957        N982   1.348       .  A
C957        C995   1.454       .  S
C957       H1002   1.079       .  S
H958        C999   1.082       .  S
C959        N983   1.353       .  A
C959        C963   1.492       .  S
C959        H988   1.081       .  S
Co960       N978   2.162       .  S
Co960       N968   1.970       .  S
Co960      N1000   1.974       .  S
Co960       N976   2.115       .  S
Co960     Cl1004   2.362       .  S
N961        C999   1.348       .  A
N961        N968   1.312       .  A
N961       Co962   2.124       .  S
Co962       N965   2.029       .  S
Co962       N982   2.044       .  S
Co962       N969   2.144       .  S
Co962     Cl1004   2.491       .  S
C963       N1001   1.337       .  A
C963       C1111   1.451       .  S
N964        N971   1.325       .  A
N964        N994   1.317       .  A
N964       Co997   2.022       .  S
N965        N983   1.313       .  A
N965       N1001   1.315       .  A
N966        C995   1.341       .  A
N966        N976   1.319       .  A
H967        C992   1.082       .  S
N968        N989   1.309       .  A
N969        N987   1.312       .  A
N969        N974   1.339       .  A
C970        N974   1.369       .  A
N971        C986   1.358       .  A
N971       Co993   2.156       .  S
C972       N1000   1.313       .  A
C972        C975   1.411       .  S
C972       H1006   1.083       .  S
C975        N996   1.378       .  A
C975       C1641   1.471       .  S
N976        N982   1.316       .  A
N977       C1003   1.338       .  A
N977        N979   1.326       .  A
N978        C992   1.353       .  A
N979       N1007   1.319       .  A
H980       C1003   1.081       .  S
H981        C998   1.080       .  S
N983       Co997   2.133       .  S
N984        N996   1.338       .  A
N984       N1000   1.308       .  A
N984       Co993   2.168       .  S
C985        N989   1.325       .  A
C985        C999   1.471       .  S
C985       C1038   1.426       .  S
C986       C1005   1.484       .  S
C986        H990   1.081       .  S
N987       Co997   2.057       .  S
C991       N1007   1.343       .  A
C991       C1003   1.455       .  S
C991       C1044   1.440       .  S
Co993     Cl1004   2.513       .  S
N994       C1005   1.328       .  A
C995       C1485   1.462       .  S
Co997     Cl1004   2.382       .  S
C1008      N1026   1.361       .  A
C1008      C1045   1.461       .  S
N1009      N1026   1.337       .  A
N1009      N1031   1.325       .  A
N1009     Co1046   2.116       .  S
C1010      N1035   1.358       .  A
C1010      C1048   1.460       .  S
C1010      H1055   1.076       .  S
H1011      C1052   1.081       .  S
C1012      N1036   1.358       .  A
C1012      C1016   1.493       .  S
C1012      H1041   1.082       .  S
Co1013     N1031   2.143       .  S
Co1013     N1021   1.982       .  S
Co1013     N1053   1.968       .  S
Co1013     N1029   2.119       .  S
Co1013    Cl1057   2.383       .  S
N1014      C1052   1.346       .  A
N1014      N1021   1.308       .  A
N1014     Co1015   2.101       .  S
Co1015     N1018   2.069       .  S
Co1015     N1035   2.086       .  S
Co1015     N1022   2.102       .  S
Co1015    Cl1057   2.482       .  S
C1016      N1054   1.344       .  A
C1016      C1270   1.468       .  S
N1017      N1024   1.324       .  A
N1017      N1047   1.320       .  A
N1017     Co1050   2.051       .  S
N1018      N1036   1.317       .  A
N1018      N1054   1.318       .  A
N1019      C1048   1.344       .  A
N1019      N1029   1.324       .  A
H1020      C1045   1.081       .  S
N1021      N1042   1.312       .  A
N1022      N1040   1.312       .  A
N1022      N1027   1.335       .  A
C1023      N1027   1.357       .  A
C1023      C2613   1.498   1_455  S
C1023      C1051   1.462       .  S
N1024      C1039   1.356       .  A
N1024     Co1046   2.132       .  S
C1025      N1053   1.315       .  A
C1025      C1028   1.413       .  S
C1025      H1059   1.084       .  S
C1028      N1049   1.376       .  A
C1028      C1588   1.466       .  S
N1029      N1035   1.319       .  A
N1030      C1056   1.337       .  A
N1030      N1032   1.329       .  A
N1030     Co1046   2.088       .  S
N1031      C1045   1.346       .  A
N1032      N1060   1.319       .  A
N1032     Co1050   2.099       .  S
H1033      C1056   1.082       .  S
H1034      C1051   1.082       .  S
N1036     Co1050   2.137       .  S
N1037      N1049   1.338       .  A
N1037      N1053   1.307       .  A
N1037     Co1046   2.162       .  S
C1038      N1042   1.328       .  A
C1038      C1052   1.465       .  S
C1039      C1058   1.477       .  S
C1039      H1043   1.082       .  S
N1040      C1051   1.347       .  A
N1040     Co1050   2.095       .  S
C1044      N1060   1.345       .  A
C1044      C1056   1.456       .  S
Co1046    Cl1057   2.502       .  S
N1047      C1058   1.336       .  A
C1048      C1644   1.486       .  S
Co1050    Cl1057   2.402       .  S
C1058      C1114   1.482       .  S
C1061      N1079   1.343       .  A
C1061      C1098   1.466       .  S
N1062      N1079   1.323       .  A
N1062      N1084   1.318       .  A
N1062     Co1099   2.094       .  S
C1063      N1088   1.358       .  A
C1063      C1101   1.497       .  S
C1063      H1108   1.081       .  S
H1064      C1105   1.082       .  S
C1065      N1089   1.341       .  A
C1065      C1069   1.463       .  S
C1065      H1094   1.081       .  S
Co1066     N1084   2.089   1_556  S
Co1066     N1074   2.092       .  S
Co1066     N1106   2.091       .  S
Co1066     N1082   2.068       .  S
Co1066    Cl1110   2.491       .  S
N1067      C1105   1.336       .  A
N1067      N1074   1.309       .  A
N1067     Co1068   2.043       .  S
Co1068     N1071   2.103       .  S
Co1068     N1088   2.151       .  S
Co1068     N1075   2.025       .  S
Co1068    Cl1110   2.387       .  S
C1069      N1107   1.345   1_554  A
C1069      C1122   1.451       .  S
N1070      N1077   1.311       .  A
N1070      N1100   1.333       .  A
N1070     Co1103   2.114       .  S
N1071      N1089   1.330   1_556  A
N1071      N1107   1.319       .  A
N1072      C1101   1.343       .  A
N1072      N1082   1.319       .  A
H1073      C1098   1.081       .  S
N1074      N1095   1.331   1_556  A
N1075      N1093   1.323       .  A
N1075      N1080   1.326       .  A
C1076      N1080   1.340       .  A
C1076      C1104   1.475       .  S
C1076      C1379   1.454       .  S
N1077      C1092   1.314       .  A
N1077     Co1099   1.978       .  S
C1078      N1106   1.346       .  A
C1078      C1081   1.467       .  S
C1078      H1112   1.082       .  S
C1081      N1102   1.328   1_556  A
N1082      N1088   1.319       .  A
N1083      C1109   1.344       .  A
N1083      N1085   1.326   1_554  A
N1083     Co1099   2.116       .  S
N1084      C1098   1.351       .  A
N1085      N1113   1.337       .  A
N1085     Co1103   2.141   1_556  S
H1086      C1109   1.082       .  S
H1087      C1104   1.081       .  S
N1089     Co1103   2.106       .  S
N1090      N1102   1.310       .  A
N1090      N1106   1.306   1_554  A
N1090     Co1099   1.981       .  S
C1091      N1095   1.359   1_556  A
C1091      C1105   1.441       .  S
C1091      C1250   1.466       .  S
C1092      C1111   1.418       .  S
C1092      H1096   1.083       .  S
N1093      C1104   1.347       .  A
N1093     Co1103   2.110   1_556  S
C1097      N1113   1.368       .  A
C1097      C1109   1.451   1_556  S
C1097      C1197   1.499       .  S
Co1099    Cl1110   2.379   1_554  S
N1100      C1111   1.360       .  A
C1101      C1273   1.467       .  S
Co1103    Cl1110   2.481   1_554  S
C1114      N1132   1.343       .  A
C1114      C1151   1.463       .  S
N1115      N1132   1.330       .  A
N1115      N1137   1.318       .  A
N1115     Co1152   2.098       .  S
C1116      N1141   1.362       .  A
C1116      C1154   1.487       .  S
C1116      H1161   1.081       .  S
H1117      C1158   1.081       .  S
C1118      N1142   1.340       .  A
C1118      C1122   1.461       .  S
C1118      H1147   1.081       .  S
Co1119     N1137   2.087   1_556  S
Co1119     N1127   2.098       .  S
Co1119     N1159   2.098       .  S
Co1119     N1135   2.066       .  S
Co1119    Cl1163   2.493       .  S
N1120      C1158   1.339       .  A
N1120      N1127   1.313       .  A
N1120     Co1121   2.070       .  S
Co1121     N1124   2.106       .  S
Co1121     N1141   2.157       .  S
Co1121     N1128   2.044       .  S
Co1121    Cl1163   2.407       .  S
C1122      N1160   1.346   1_554  A
N1123      N1130   1.307       .  A
N1123      N1153   1.339       .  A
N1123     Co1156   2.150       .  S
N1124      N1142   1.330   1_556  A
N1124      N1160   1.321       .  A
N1125      C1154   1.337       .  A
N1125      N1135   1.318       .  A
H1126      C1151   1.079       .  S
N1127      N1148   1.333   1_556  A
N1128      N1146   1.329       .  A
N1128      N1133   1.331       .  A
C1129      N1133   1.338       .  A
C1129      C1157   1.474       .  S
C1129      C1326   1.476       .  S
N1130      C1145   1.313       .  A
N1130     Co1152   1.971       .  S
C1131      N1159   1.346       .  A
C1131      C1134   1.469       .  S
C1131      H1165   1.080       .  S
C1134      N1155   1.328   1_556  A
N1135      N1141   1.324       .  A
N1136      C1162   1.348       .  A
N1136      N1138   1.325   1_554  A
N1136     Co1152   2.131       .  S
N1137      C1151   1.346       .  A
N1138      N1166   1.337       .  A
N1138     Co1156   2.137   1_556  S
H1139      C1162   1.082       .  S
H1140      C1157   1.081       .  S
N1142     Co1156   2.099       .  S
N1143      N1155   1.311       .  A
N1143      N1159   1.310   1_554  A
N1143     Co1152   1.985       .  S
C1144      N1148   1.359   1_556  A
C1144      C1158   1.449       .  S
C1144      C1256   1.481   1_556  S
C1145      C1164   1.414       .  S
C1145      H1149   1.083       .  S
N1146      C1157   1.345       .  A
N1146     Co1156   2.135   1_556  S
C1150      N1166   1.367       .  A
C1150      C1162   1.459   1_556  S
C1150      C1203   1.506       .  S
Co1152    Cl1163   2.380   1_554  S
N1153      C1164   1.372       .  A
C1154      C1482   1.485       .  S
Co1156    Cl1163   2.501   1_554  S
C1167      N1185   1.334       .  A
C1167      C1204   1.470       .  S
N1168      N1185   1.325       .  A
N1168      N1190   1.319       .  A
N1168     Co2901   2.095   1_455  S
C1169      N1194   1.353       .  A
C1169      C1207   1.489       .  S
H1170      C1211   1.082       .  S
C1171      N1195   1.344       .  A
C1171      C1175   1.468       .  S
C1171      H1200   1.081       .  S
Co1172     N1190   2.093   1_556  S
Co1172     N1212   2.106       .  S
Co1172     N1188   2.072       .  S
Co1172    Cl1216   2.487       .  S
N1173      C1211   1.346       .  A
N1173      N1180   1.313       .  A
N1173     Co1174   2.074       .  S
Co1174     N1177   2.094       .  S
Co1174     N2877   2.035   1_455  S
C1175      N2909   1.343   1_554  A
C1175      C2924   1.455       .  S
N1176      N1206   1.339       .  A
N1176     Co1209   2.155       .  S
N1177      N2891   1.330   1_456  A
N1177      N1213   1.320       .  A
N1178      C1207   1.346       .  A
N1178      N1188   1.321       .  A
H1179      C1204   1.081       .  S
N1180      N1201   1.336   1_556  A
N1181      N1199   1.324       .  A
N1181      N1186   1.321       .  A
N1181     Co2870   2.035       .  S
C1182      N1186   1.333       .  A
C1182      C1210   1.475       .  S
C1182      C1323   1.473       .  S
N1183     Co1205   1.971       .  S
C1184      N1212   1.346       .  A
C1184      C1187   1.468       .  S
C1184      H1218   1.081       .  S
C1187      N1208   1.327   1_456  A
C1187      C2936   1.424       .  S
N1188      N1194   1.317       .  A
N1189      C1215   1.350       .  A
N1189      N1191   1.323       .  A
N1189     Co1205   2.134       .  S
N1190      C1204   1.349       .  A
N1191      N1219   1.336   1_554  A
H1192      C1215   1.081       .  S
H1193      C1210   1.081       .  S
N1195      N2873   1.330   1_554  A
N1195     Co1209   2.119       .  S
N1196      N1208   1.310   1_455  A
N1196      N1212   1.309   1_554  A
N1196     Co2901   1.976   1_455  S
C1197      N1201   1.366   1_556  A
C1197      C1211   1.452       .  S
C1198      C1217   1.406       .  S
N1199      C1210   1.349       .  A
N1199     Co1209   2.128   1_556  S
C1203      N1219   1.365       .  A
C1203      C1215   1.463   1_556  S
Co1205     N2864   2.095       .  S
Co1205     N2892   1.976       .  S
Co1205    Cl2912   2.373   1_554  S
N1206      C1217   1.377       .  A
C1207      C1432   1.462       .  S
Co1209    Cl2064   2.506   1_554  S
N1213      C2871   1.343   1_556  A
Cl1216    Co2901   2.373   1_456  S
Cl1216    Co2057   2.506   1_466  S
C1220      N1238   1.344       .  A
C1220      C1257   1.456       .  S
N1221      N1238   1.327       .  A
N1221      N1243   1.316       .  A
N1221     Co2954   2.087       .  S
C1222      N1247   1.358       .  A
C1222      C1260   1.479       .  S
C1222      H1267   1.081       .  S
H1223      C1264   1.081       .  S
C1224      N1248   1.344       .  A
C1224      C1228   1.466       .  S
C1224      H1253   1.082       .  S
Co1225     N1243   2.071   1_556  S
Co1225     N1233   2.095       .  S
Co1225     N1265   2.096       .  S
Co1225     N1241   2.055       .  S
Co1225    Cl2965   2.489       .  S
N1226      C1264   1.340       .  A
N1226      N1233   1.312       .  A
N1226     Co1227   2.062       .  S
Co1227     N2926   2.099       .  S
Co1227     N1247   2.132       .  S
Co1227     N2930   2.028       .  S
Co1227    Cl2965   2.386       .  S
C1228      N1266   1.342   1_454  A
C1228      C2871   1.455       .  S
N1229      N1236   1.311       .  A
N1229      N1259   1.338       .  A
N1229     Co1262   2.144       .  S
N1230      N1248   1.328   1_556  A
N1230      N1266   1.320   1_455  A
N1230     Co2923   2.099   1_455  S
N1231      C1260   1.338       .  A
N1231      N1241   1.315       .  A
H1232      C1257   1.078       .  S
N1233      N1254   1.328   1_556  A
N1234      N1252   1.323       .  A
N1234      N1239   1.319       .  A
N1234     Co2923   2.028   1_455  S
C1235      N1239   1.332       .  A
C1235      C1263   1.473       .  S
C1235      C1429   1.470       .  S
N1236      C1251   1.316       .  A
N1236     Co1258   1.988       .  S
C1237      N1265   1.346       .  A
C1237      C1240   1.467       .  S
C1237      H1271   1.080       .  S
C1240      N2957   1.327   1_556  A
C1240      C2883   1.424       .  S
N1241      N1247   1.320       .  A
N1242      C1268   1.348       .  A
N1242      N1244   1.323       .  A
N1242     Co1258   2.132       .  S
N1243      C1257   1.341       .  A
N1244      N1272   1.328   1_554  A
N1244     Co1262   2.089       .  S
H1245      C1268   1.082       .  S
H1246      C1263   1.081       .  S
N1248     Co1262   2.103       .  S
N1249      N2957   1.311       .  A
N1249      N1265   1.312   1_554  A
N1249     Co2954   1.996       .  S
C1250      N1254   1.357   1_556  A
C1250      C1264   1.447       .  S
C1251      C1270   1.416       .  S
C1251      H1255   1.083       .  S
N1252      C1263   1.350       .  A
N1252     Co1262   2.126   1_556  S
C1256      N1272   1.356   1_554  A
C1256      C1268   1.457       .  S
Co1258     N2917   2.087   1_455  S
Co1258     N2945   1.996   1_455  S
Co1258    Cl1269   2.362   1_554  S
N1259      C1270   1.368       .  A
C1260      C1376   1.473       .  S
N1261      C2936   1.327   1_554  A
N1261      N2945   1.311   1_455  A
Co1262    Cl1269   2.502   1_554  S
Cl1269    Co2921   2.489   1_455  S
Cl1269    Co2923   2.386   1_455  S
C1273      N1291   1.313       .  A
C1273      C1310   1.488       .  S
N1274      N1291   1.304       .  A
N1274      N1296   1.308       .  A
N1274     Co1311   1.985       .  S
C1275      N1300   1.348       .  A
C1275      C1313   1.444       .  S
C1275      H1320   1.081       .  S
H1276      C1317   1.080       .  S
C1277      N1301   1.351       .  A
C1277      H1306   1.081       .  S
Co1278     N1296   2.126       .  S
Co1278     N1318   2.124       .  S
Co1278     N1294   2.105       .  S
Co1278    Cl1322   2.485       .  S
N1279      C1317   1.327   1_545  A
N1279      N1286   1.333       .  A
Co1280     N1283   2.089       .  S
Co1280     N1300   2.040       .  S
Co1280     N1287   2.133       .  S
Co1280    Cl1322   2.428       .  S
C1281      N1319   1.349       .  A
C1281      C2300   1.493   1_545  S
N1282      N1289   1.319       .  A
N1282      N1312   1.331       .  A
N1282     Co1315   2.115       .  S
N1283      N1301   1.311       .  A
N1284      C1313   1.353       .  A
N1284      N1294   1.324       .  A
N1286      N1307   1.325   1_545  A
N1287      N1305   1.325       .  A
N1287      N1292   1.337       .  A
C1288      N1292   1.363       .  A
C1288      C1316   1.454       .  S
C1288      C1631   1.486       .  S
N1289      C1304   1.339       .  A
N1289     Co1311   2.071       .  S
C1290      N1318   1.354       .  A
C1290      C1293   1.480       .  S
C1290      H1324   1.082       .  S
C1293      N1314   1.355       .  A
C1293      C1399   1.507       .  S
N1294      N1300   1.325       .  A
N1295      C1321   1.319       .  A
N1295      N1297   1.311       .  A
N1295     Co1311   1.967       .  S
N1296      C1310   1.365       .  A
N1297      N1325   1.324       .  A
N1297     Co1315   2.095       .  S
H1298      C1321   1.081       .  S
H1299      C1316   1.080       .  S
N1301     Co1315   2.091       .  S
N1302      N1314   1.333       .  A
N1302      N1318   1.327       .  A
N1302     Co1311   2.153       .  S
C1303      N1307   1.355       .  A
C1303      C1317   1.432       .  S
C1303      C1362   1.441       .  S
C1304      C1323   1.434       .  S
C1304      H1308   1.076       .  S
N1305      C1316   1.337       .  A
N1305     Co1315   2.100       .  S
C1309      N1325   1.353       .  A
C1309      C1321   1.421       .  S
C1309      C1356   1.425       .  S
Co1311    Cl1322   2.395       .  S
N1312      C1323   1.360       .  A
Co1315    Cl1322   2.463       .  S
C1326      N1344   1.312       .  A
C1326      C1363   1.499       .  S
N1327      N1344   1.305       .  A
N1327      N1349   1.307       .  A
N1327     Co1364   1.999       .  S
C1328      N1353   1.342       .  A
C1328      C1366   1.447       .  S
C1328      H1373   1.082       .  S
H1329      C1370   1.079       .  S
C1330      N1354   1.356       .  A
C1330      C1334   1.476       .  S
C1330      H1359   1.081       .  S
Co1331     N1349   2.152       .  S
Co1331     N1339   2.088       .  S
Co1331     N1371   2.064       .  S
Co1331     N1347   2.133       .  S
Co1331    Cl1375   2.490       .  S
N1332      C1370   1.330       .  A
N1332      N1339   1.329       .  A
N1332     Co1333   2.061       .  S
Co1333     N1336   2.099       .  S
Co1333     N1353   2.053       .  S
Co1333     N1340   2.123       .  S
Co1333    Cl1375   2.415       .  S
C1334      N1372   1.350       .  A
C1334      C3083   1.503       .  S
N1335      N1342   1.317       .  A
N1335      N1365   1.334       .  A
N1335     Co1368   2.084       .  S
N1336      N1354   1.312       .  A
N1336      N1372   1.333       .  A
N1337      C1366   1.359       .  A
N1337      N1347   1.333       .  A
H1338      C1363   1.082       .  S
N1339      N1360   1.317       .  A
N1340      N1358   1.317       .  A
N1340      N1345   1.331       .  A
C1341      N1345   1.368       .  A
C1341      C1369   1.459       .  S
C1341      C1659   1.460       .  S
N1342      C1357   1.335       .  A
N1342     Co1364   2.095       .  S
C1343      N1371   1.341       .  A
C1343      C1346   1.457       .  S
C1343      H1377   1.082       .  S
C1346      N1367   1.359       .  A
C1346      C1440   1.486       .  S
N1347      N1353   1.324       .  A
N1348      C1374   1.330       .  A
N1348      N1350   1.313       .  A
N1348     Co1364   1.988       .  S
N1349      C1363   1.365       .  A
N1350      N1378   1.323       .  A
N1350     Co1368   2.119       .  S
H1351      C1374   1.081       .  S
H1352      C1369   1.079       .  S
N1354     Co1368   2.112       .  S
N1355      N1367   1.333       .  A
N1355      N1371   1.325       .  A
N1355     Co1364   2.167       .  S
C1356      N1360   1.349       .  A
C1356      C1370   1.430       .  S
C1357      C1376   1.445       .  S
C1357      H1361   1.079       .  S
N1358      C1369   1.340       .  A
N1358     Co1368   2.082       .  S
C1362      N1378   1.354       .  A
C1362      C1374   1.433       .  S
Co1364    Cl1375   2.387       .  S
N1365      C1376   1.353       .  A
C1366      C1578   1.490       .  S
Co1368    Cl1375   2.464       .  S
C1379      N1397   1.308       .  A
C1379      C1416   1.498       .  S
N1380      N1397   1.298       .  A
N1380      N1402   1.307       .  A
N1380     Co1417   1.965       .  S
C1381      N1406   1.340       .  A
C1381      C1419   1.444       .  S
C1381      H1426   1.082       .  S
H1382      C1423   1.081       .  S
C1383      N1407   1.365       .  A
C1383      C1387   1.494       .  S
C1383      H1412   1.082       .  S
Co1384     N1402   2.141       .  S
Co1384     N1392   2.093       .  S
Co1384     N1424   2.135       .  S
Co1384     N1400   2.125       .  S
Co1384    Cl1428   2.499       .  S
N1385      C1423   1.333       .  A
N1385      N1392   1.328       .  A
N1385     Co1386   2.095       .  S
Co1386     N1389   2.048       .  S
Co1386     N1406   2.026       .  S
Co1386     N1393   2.160       .  S
Co1386    Cl1428   2.394       .  S
C1387      N1425   1.337       .  A
C1387      C3030   1.503   1_455  S
N1388      N1395   1.319       .  A
N1388      N1418   1.327       .  A
N1388     Co1421   2.076       .  S
N1389      N1407   1.313       .  A
N1389      N1425   1.324       .  A
N1390      C1419   1.363       .  A
N1390      N1400   1.330       .  A
H1391      C1416   1.081       .  S
N1392      N1413   1.323       .  A
N1393      N1411   1.316       .  A
N1393      N1398   1.335       .  A
C1394      N1398   1.377       .  A
C1394      C1422   1.440       .  S
C1394      C1606   1.459       .  S
N1395      C1410   1.342       .  A
N1395     Co1417   2.106       .  S
C1396      N1424   1.357       .  A
C1396      C1399   1.481       .  S
C1396      H1430   1.081       .  S
C1399      N1420   1.351       .  A
N1400      N1406   1.323       .  A
N1401      C1427   1.323       .  A
N1401      N1403   1.308       .  A
N1401     Co1417   1.967       .  S
N1402      C1416   1.362       .  A
N1403      N1431   1.325       .  A
N1403     Co1421   2.125       .  S
H1404      C1427   1.078       .  S
H1405      C1422   1.081       .  S
N1407     Co1421   2.150       .  S
N1408      N1420   1.332       .  A
N1408      N1424   1.325       .  A
N1408     Co1417   2.135       .  S
C1409      N1413   1.351       .  A
C1409      C1423   1.449       .  S
C1409      C1462   1.445       .  S
C1410      C1429   1.439       .  S
C1410      H1414   1.076       .  S
N1411      C1422   1.331       .  A
N1411     Co1421   2.042       .  S
C1415      N1431   1.358       .  A
C1415      C1427   1.425       .  S
C1415      C1468   1.427       .  S
Co1417    Cl1428   2.390       .  S
N1418      C1429   1.354       .  A
C1419      C1553   1.456       .  S
Co1421    Cl1428   2.481       .  S
C1432      N1450   1.316       .  A
C1432      C1469   1.487       .  S
N1433      N1450   1.304       .  A
N1433      N1455   1.311       .  A
N1433     Co1470   1.986       .  S
C1434      N1459   1.338       .  A
C1434      C1472   1.444       .  S
C1434      H1479   1.082       .  S
H1435      C1476   1.081       .  S
C1436      N1460   1.347       .  A
C1436      C1440   1.459       .  S
C1436      H1465   1.081       .  S
Co1437     N1455   2.137       .  S
Co1437     N1445   2.093       .  S
Co1437     N1477   2.095       .  S
Co1437     N1453   2.116       .  S
Co1437    Cl1481   2.490       .  S
N1438      C1476   1.336       .  A
N1438      N1445   1.330       .  A
N1438     Co1439   2.102       .  S
Co1439     N1442   2.110       .  S
Co1439     N1459   2.057       .  S
Co1439     N1446   2.149       .  S
Co1439    Cl1481   2.415       .  S
C1440      N1478   1.355       .  A
N1441      N1448   1.318       .  A
N1441      N1471   1.335       .  A
N1441     Co1474   2.086       .  S
N1442      N1460   1.312       .  A
N1442      N1478   1.330       .  A
N1443      C1472   1.356       .  A
N1443      N1453   1.330       .  A
H1444      C1469   1.082       .  S
N1445      N1466   1.322       .  A
N1446      N1464   1.321       .  A
N1446      N1451   1.340       .  A
C1447      N1451   1.368       .  A
C1447      C1475   1.439       .  S
N1448      C1463   1.342       .  A
N1448     Co1470   2.105       .  S
C1449      N1477   1.350       .  A
C1449      H1483   1.082       .  S
C1452      N1473   1.350       .  A
C1452      C2129   1.493   1_455  S
N1453      N1459   1.323       .  A
N1454      C1480   1.324       .  A
N1454      N1456   1.309       .  A
N1455      C1469   1.362       .  A
N1456      N1484   1.325       .  A
H1457      C1480   1.078       .  S
N1460     Co1474   2.067       .  S
N1461      N1477   1.324       .  A
N1461     Co1470   2.149       .  S
C1462      N1466   1.348       .  A
C1462      C1476   1.453       .  S
C1463      C1482   1.450       .  S
C1463      H1467   1.077       .  S
N1464      C1475   1.329       .  A
N1464     Co1474   2.061       .  S
C1468      N1484   1.355       .  A
C1468      C1480   1.424       .  S
Co1470    Cl1481   2.396       .  S
N1471      C1482   1.352       .  A
C1472      C1684   1.474       .  S
Co1474    Cl1481   2.467       .  S
C1485      N1503   1.361       .  A
C1485      C1522   1.439       .  S
N1486      N1503   1.333       .  A
N1486      N1508   1.319       .  A
C1487      N1512   1.337       .  A
C1487      C1525   1.446       .  S
C1487      H1532   1.076       .  S
H1488      C1529   1.074       .  S
C1489      N1513   1.350       .  A
C1489      C1493   1.472       .  S
C1489      H1518   1.081       .  S
Co1490     N1508   2.047       .  S
Co1490     N1498   2.132       .  S
Co1490     N1506   2.079       .  S
Co1490    Cl1534   2.469       .  S
N1491      C1529   1.323       .  A
N1491      N1498   1.311       .  A
N1491     Co1492   1.983       .  S
Co1492     N1495   2.143       .  S
Co1492     N1512   2.093       .  S
Co1492    Cl1534   2.389       .  S
C1493      N1531   1.350       .  A
C1493      C1611   1.495       .  S
N1494      N1501   1.322       .  A
N1494      N1524   1.330       .  A
N1494     Co1527   2.132       .  S
N1495      N1513   1.323       .  A
N1495      N1531   1.331       .  A
N1496      C1525   1.352       .  A
N1496      N1506   1.335       .  A
H1497      C1522   1.082       .  S
N1498      N1519   1.330       .  A
N1499      N1517   1.311   1_545  A
N1499      N1504   1.302       .  A
C1500      N1504   1.314   1_565  A
C1500      C1528   1.490       .  S
N1501      C1516   1.334       .  A
N1501     Co1523   2.029       .  S
C1502      N1530   1.347       .  A
C1502      C1505   1.467       .  S
C1502      H1536   1.082       .  S
C1505      N1526   1.341       .  A
C1505      C1664   1.460       .  S
N1506      N1512   1.315       .  A
N1507      C1533   1.335       .  A
N1507      N1509   1.326       .  A
N1507     Co1523   2.092       .  S
N1508      C1522   1.329       .  A
N1509      N1537   1.324       .  A
N1509     Co1527   2.092       .  S
H1510      C1533   1.081       .  S
H1511      C1528   1.081       .  S
N1514      N1526   1.322       .  A
N1514      N1530   1.312       .  A
N1514     Co1523   2.062       .  S
C1515      N1519   1.363       .  A
C1515      C1529   1.422       .  S
C1515      C1568   1.437       .  S
C1516      C1535   1.435       .  S
C1516      H1520   1.082       .  S
N1517      C1528   1.359       .  A
N1517     Co1527   2.138       .  S
C1521      N1537   1.351       .  A
C1521      C1533   1.448       .  S
C1521      C1574   1.447       .  S
N1524      C1535   1.360       .  A
C1538      N1556   1.370       .  A
C1538      C1575   1.438       .  S
N1539      N1556   1.339       .  A
N1539      N1561   1.320       .  A
N1539     Co1576   2.151       .  S
C1540      N1565   1.350       .  A
C1540      C1578   1.447       .  S
C1540      H1585   1.075       .  S
H1541      C1582   1.078       .  S
C1542      N1566   1.360       .  A
C1542      C1546   1.487       .  S
C1542      H1571   1.081       .  S
Co1543     N1561   2.052       .  S
Co1543     N1551   2.133       .  S
Co1543     N1583   2.126       .  S
Co1543     N1559   2.089       .  S
Co1543    Cl1587   2.461       .  S
N1544      C1582   1.325       .  A
N1544      N1551   1.308       .  A
N1544     Co1545   1.977       .  S
Co1545     N1548   2.140       .  S
Co1545     N1565   2.116       .  S
Co1545     N1552   1.967       .  S
Co1545    Cl1587   2.416       .  S
C1546      N1584   1.351       .  A
C1546      C1599   1.516       .  S
N1547      N1554   1.325       .  A
N1547      N1577   1.327       .  A
N1547     Co1580   2.128       .  S
N1548      N1566   1.325       .  A
N1548      N1584   1.333       .  A
N1549      C1578   1.354       .  A
N1549      N1559   1.331       .  A
H1550      C1575   1.082       .  S
N1551      N1572   1.329       .  A
N1552      N1570   1.308       .  A
N1552      N1557   1.301       .  A
C1553      N1557   1.311       .  A
C1553      C1581   1.498       .  S
N1554      C1569   1.343       .  A
N1554     Co1576   2.038       .  S
C1555      N1583   1.356       .  A
C1555      C1558   1.482       .  S
C1555      H1589   1.082       .  S
C1558      N1579   1.342       .  A
C1558      C1652   1.496       .  S
N1559      N1565   1.318       .  A
N1560      C1586   1.333       .  A
N1560      N1562   1.329       .  A
N1560     Co1576   2.090       .  S
N1561      C1575   1.327       .  A
N1562      N1590   1.324       .  A
N1562     Co1580   2.105       .  S
H1563      C1586   1.081       .  S
H1564      C1581   1.081       .  S
N1566     Co1580   2.152       .  S
N1567      N1579   1.327       .  A
N1567      N1583   1.314       .  A
N1567     Co1576   2.065       .  S
C1568      N1572   1.364       .  A
C1568      C1582   1.424       .  S
C1569      C1588   1.443       .  S
C1569      H1573   1.081       .  S
N1570      C1581   1.362       .  A
N1570     Co1580   2.149       .  S
C1574      N1590   1.353       .  A
C1574      C1586   1.447       .  S
Co1576    Cl1587   2.426       .  S
N1577      C1588   1.361       .  A
Co1580    Cl1587   2.486       .  S
C1591      N1609   1.375       .  A
C1591      C1628   1.449       .  S
N1592      N1609   1.338       .  A
N1592      N1614   1.318       .  A
N1592     Co1629   2.156       .  S
C1593      N1618   1.340       .  A
C1593      C1631   1.447       .  S
C1593      H1638   1.077       .  S
H1594      C1635   1.075       .  S
C1595      N1619   1.361       .  A
C1595      C1599   1.490       .  S
C1595      H1624   1.081       .  S
Co1596     N1614   2.075       .  S
Co1596     N1604   2.105       .  S
Co1596     N1636   2.103       .  S
Co1596     N1612   2.099       .  S
Co1596    Cl1640   2.478       .  S
N1597      C1635   1.322       .  A
N1597      N3300   1.305   1_455  A
N1597     Co1598   1.965       .  S
Co1598     N1601   2.141       .  S
Co1598     N3314   2.105   1_455  S
Co1598     N1605   1.969       .  S
Co1598    Cl3336   2.389   1_455  S
C1599      N1637   1.349       .  A
N1600      N1607   1.323       .  A
N1600      N1630   1.327       .  A
N1600     Co1633   2.123       .  S
N1601      N1619   1.327       .  A
N1601      N1637   1.332       .  A
N1602      C1631   1.358       .  A
N1602      N1612   1.336       .  A
H1603      C1628   1.079       .  S
N1604      N3293   1.305       .  A
N1604      N1625   1.325       .  A
N1605      N1623   1.314       .  A
N1605      N1610   1.306       .  A
C1606      N1610   1.314       .  A
C1606      C1634   1.483       .  S
N1607      C1622   1.346       .  A
N1607     Co3325   2.031   1_455  S
C1608      N1636   1.354       .  A
C1608      C1611   1.476       .  S
C1608      H1642   1.082       .  S
C1611      N1632   1.347       .  A
N1612      N1618   1.320       .  A
N1613      C1639   1.335       .  A
N1613      N3311   1.333       .  A
N1613     Co1629   2.102       .  S
N1614      C1628   1.335       .  A
N1615      N3309   1.333   1_455  A
N1615      N1643   1.325       .  A
N1615     Co1633   2.123       .  S
H1616      C1639   1.082       .  S
H1617      C1634   1.081       .  S
N1618     Co3294   2.105       .  S
N1619     Co1633   2.150       .  S
N1620      N1632   1.329       .  A
N1620      N1636   1.311       .  A
N1620     Co1629   2.079       .  S
C1621      N1625   1.357       .  A
C1621      C3331   1.421       .  S
C1621      C3370   1.423       .  S
C1622      C1641   1.443       .  S
C1622      H1626   1.081       .  S
N1623      C1634   1.362       .  A
N1623     Co1633   2.135       .  S
C1627      N1643   1.354       .  A
C1627      C3335   1.451   1_455  S
C1627      C2528   1.454       .  S
Co1629     N3303   2.030       .  S
Co1629    Cl1640   2.411       .  S
N1630      C1641   1.362       .  A
Co1633    Cl3336   2.490   1_455  S
C1635      C3317   1.421   1_455  S
C1639      C3323   1.451       .  S
Cl1640    Co3294   2.389       .  S
Cl1640    Co3329   2.490       .  S
C1644      N1662   1.371       .  A
C1644      C1681   1.438       .  S
N1645      N1662   1.341       .  A
N1645      N1667   1.321       .  A
N1645     Co1682   2.164       .  S
C1646      N1671   1.345       .  A
C1646      C1684   1.445       .  S
C1646      H1691   1.077       .  S
H1647      C1688   1.077       .  S
C1648      N1672   1.355       .  A
C1648      C1652   1.482       .  S
C1648      H1677   1.081       .  S
Co1649     N1667   2.055       .  S
Co1649     N1657   2.096       .  S
Co1649     N1689   2.080       .  S
Co1649     N1665   2.083       .  S
Co1649    Cl3389   2.484       .  S
N1650      C1688   1.324       .  A
N1650      N3353   1.310       .  A
N1650     Co1651   1.992       .  S
Co1651     N1654   2.122       .  S
Co1651     N3367   2.088       .  S
Co1651     N1658   1.982       .  S
Co1651    Cl1693   2.400       .  S
C1652      N1690   1.343       .  A
N1653      N1660   1.325       .  A
N1653      N1683   1.327       .  A
N1653     Co1686   2.130       .  S
N1654      N1672   1.325       .  A
N1654      N1690   1.328       .  A
N1655      C1684   1.351       .  A
N1655      N1665   1.328       .  A
H1656      C1681   1.082       .  S
N1657      N3346   1.310       .  A
N1657      N1678   1.325       .  A
N1658      N1676   1.310       .  A
N1658      N1663   1.303       .  A
C1659      N1663   1.317       .  A
C1659      C1687   1.488       .  S
N1660      C1675   1.345       .  A
N1660     Co3378   2.034       .  S
C1661      N1689   1.348       .  A
C1661      C1664   1.469       .  S
C1661      H1695   1.082       .  S
C1664      N1685   1.338       .  A
N1665      N1671   1.316       .  A
N1666      C1692   1.337       .  A
N1666      N3364   1.329   1_455  A
N1666     Co1682   2.108       .  S
N1667      C1681   1.331       .  A
N1668      N3362   1.329       .  A
N1668      N1696   1.324       .  A
N1668     Co1686   2.101       .  S
H1669      C1692   1.081       .  S
H1670      C1687   1.081       .  S
N1671     Co3347   2.088   1_455  S
N1672     Co1686   2.128       .  S
N1673      N1685   1.320       .  A
N1673      N1689   1.312       .  A
N1673     Co1682   2.054       .  S
C1674      N1678   1.356       .  A
C1674      C3317   1.423   1_455  S
C1674      C3384   1.424   1_455  S
C1675      C1694   1.445       .  S
C1675      H1679   1.082       .  S
N1676      C1687   1.360       .  A
N1676     Co1686   2.134       .  S
C1680      N1696   1.352       .  A
C1680      C2475   1.454   1_565  S
C1680      C3388   1.452       .  S
Co1682     N3356   2.034   1_455  S
Co1682    Cl3389   2.401       .  S
N1683      C1694   1.361       .  A
Co1686    Cl1693   2.480       .  S
C1688      C3370   1.424       .  S
C1692      C3376   1.452       .  S
Cl1693    Co3345   2.484       .  S
Cl1693    Co3378   2.401       .  S
C1697      N1715   1.314       .  A
C1697      C1734   1.488       .  S
C1697      C2439   1.471       .  S
N1698      N1715   1.306       .  A
N1698      N1720   1.309       .  A
N1698     Co1735   1.985       .  S
C1699      N1724   1.335       .  A
C1699      C1737   1.444       .  S
C1699      H1744   1.082       .  S
H1700      C1741   1.080       .  S
C1701      N1725   1.345       .  A
C1701      C1705   1.462       .  S
C1701      H1730   1.081       .  S
Co1702     N1720   2.132       .  S
Co1702     N1710   2.109       .  S
Co1702     N1742   2.086       .  S
Co1702     N1718   2.113       .  S
Co1702    Cl1746   2.489       .  S
N1703      C1741   1.326       .  A
N1703      N1710   1.332       .  A
N1703     Co1704   2.059       .  S
Co1704     N1707   2.121       .  S
Co1704     N1724   2.057       .  S
Co1704     N1711   2.114       .  S
Co1704    Cl1746   2.410       .  S
C1705      N1743   1.359       .  A
C1705      C1856   1.502       .  S
N1706      N1713   1.320       .  A
N1706      N1736   1.336       .  A
N1706     Co1739   2.094       .  S
N1707      N1725   1.311       .  A
N1707      N1743   1.337       .  A
N1708      C1737   1.354       .  A
N1708      N1718   1.330       .  A
H1709      C1734   1.082       .  S
N1710      N1731   1.322       .  A
N1711      N1729   1.322       .  A
N1711      N1716   1.332       .  A
C1712      N1716   1.357       .  A
C1712      C1740   1.456       .  S
C1712      C1909   1.476       .  S
N1713      C1728   1.337       .  A
N1713     Co1735   2.095       .  S
C1714      N1742   1.347       .  A
C1714      C1717   1.466       .  S
C1714      H1748   1.082       .  S
C1717      N1738   1.363       .  A
N1718      N1724   1.325       .  A
N1719      C1745   1.320       .  A
N1719      N1721   1.313       .  A
N1719     Co1735   1.974       .  S
N1720      C1734   1.366       .  A
N1721      N1749   1.323       .  A
N1721     Co1739   2.097       .  S
H1722      C1745   1.082       .  S
H1723      C1740   1.081       .  S
N1725     Co1739   2.076       .  S
N1726      N1738   1.336       .  A
N1726      N1742   1.325       .  A
N1726     Co1735   2.180       .  S
C1727      N1731   1.350       .  A
C1727      C1741   1.430       .  S
C1727      C1790   1.429       .  S
C1728      C1747   1.444       .  S
C1728      H1732   1.077       .  S
N1729      C1740   1.339       .  A
N1729     Co1739   2.091       .  S
C1733      N1749   1.353       .  A
C1733      C1745   1.423       .  S
C1733      C1800   1.425       .  S
Co1735    Cl1746   2.390       .  S
N1736      C1747   1.353       .  A
C1737      C2068   1.472       .  S
Co1739    Cl1746   2.478       .  S
C1747      C2386   1.476       .  S
C1750      N1768   1.342       .  A
C1750      C2635   1.482       .  S
C1750      C1818   1.494   1_565  S
N1751      N2616   1.328       .  A
N1751      N1773   1.310       .  A
N1751     Co1788   2.065       .  S
C1752      N1777   1.327       .  A
C1752      C1790   1.431       .  S
C1752      H1797   1.081       .  S
H1753      C1794   1.076       .  S
C1754      N1778   1.363       .  A
C1754      C1758   1.497       .  S
C1754      H1783   1.082       .  S
Co1755     N1773   2.117       .  S
Co1755     N1763   2.094       .  S
Co1755     N1795   2.092       .  S
Co1755     N1771   2.095       .  S
Co1755    Cl1799   2.459       .  S
N1756      C1794   1.341       .  A
N1756      N1763   1.320       .  A
N1756     Co1757   2.093       .  S
Co1757     N1760   1.973       .  S
Co1757     N1777   1.980       .  S
Co1757     N1764   2.153       .  S
Co1757    Cl1799   2.400       .  S
C1758      N1796   1.310       .  A
C1758      C2542   1.462       .  S
N1759      N1766   1.330       .  A
N1759      N1789   1.318   1_565  A
N1759     Co2640   2.094       .  S
N1760      N1778   1.305       .  A
N1760      N1796   1.301       .  A
N1761      C1790   1.350       .  A
N1761      N1771   1.320       .  A
H1762      C1787   1.081       .  S
N1763      N1784   1.328       .  A
N1764      N1782   1.328       .  A
N1764      N1769   1.334       .  A
C1765      N1769   1.358       .  A
C1765      C1793   1.468       .  S
N1766      C1781   1.329   1_565  A
N1766     Co2636   2.062       .  S
C1767      N1795   1.341       .  A
C1767      C1770   1.461       .  S
C1767      H1801   1.080       .  S
N1768      N2599   1.328       .  A
C1770      N1791   1.371       .  A
C1770      C2012   1.467       .  S
N1771      N1777   1.311       .  A
N1772      C1798   1.349       .  A
N1772      N1774   1.322       .  A
N1772     Co1788   2.033       .  S
N1773      C1787   1.357       .  A
N1774      N1802   1.325       .  A
N1774     Co1792   2.107       .  S
H1775      C1798   1.081       .  S
H1776      C1793   1.082       .  S
N1778     Co1792   2.133       .  S
N1779      N1791   1.331       .  A
N1779      N1795   1.318       .  A
N1779     Co1788   2.128       .  S
C1780      N1784   1.356       .  A
C1780      C1794   1.437       .  S
C1780      C2383   1.470       .  S
C1781      C1800   1.429       .  S
C1781      H1785   1.080       .  S
N1782      C1793   1.347       .  A
N1782     Co1792   2.107       .  S
C1786      N1802   1.357       .  A
C1786      C1798   1.450       .  S
C1786      C2913   1.466       .  S
C1787      C2598   1.482       .  S
Co1788     N2614   2.062       .  S
Co1788    Cl1799   2.419       .  S
N1789      C1800   1.350       .  A
Co1792     N2607   2.094       .  S
Co1792    Cl1799   2.475       .  S
C1803      N1821   1.357       .  A
C1803      C1840   1.472       .  S
N1804      N1821   1.334       .  A
N1804      N1826   1.325       .  A
N1804     Co1841   2.095       .  S
C1805      N1830   1.348       .  A
C1805      C1843   1.454       .  S
C1805      H1850   1.079       .  S
H1806      C1847   1.082       .  S
C1807      N1831   1.353       .  A
C1807      C1811   1.492       .  S
C1807      H1836   1.081       .  S
Co1808     N1826   2.162       .  S
Co1808     N1816   1.970       .  S
Co1808     N1848   1.974       .  S
Co1808     N1824   2.115       .  S
Co1808    Cl1852   2.362       .  S
N1809      C1847   1.348       .  A
N1809      N1816   1.312       .  A
N1809     Co1810   2.124       .  S
Co1810     N1813   2.029       .  S
Co1810     N1830   2.044       .  S
Co1810     N1817   2.144       .  S
Co1810    Cl1852   2.491       .  S
C1811      N1849   1.337       .  A
C1811      C1959   1.451       .  S
N1812      N1819   1.325       .  A
N1812      N1842   1.317       .  A
N1812     Co1845   2.022       .  S
N1813      N1831   1.313       .  A
N1813      N1849   1.315       .  A
N1814      C1843   1.341       .  A
N1814      N1824   1.319       .  A
H1815      C1840   1.082       .  S
N1816      N1837   1.309       .  A
N1817      N1835   1.312       .  A
N1817      N1822   1.339       .  A
C1818      N1822   1.369       .  A
C1818      C2694   1.443   1_545  S
N1819      C1834   1.358       .  A
N1819     Co1841   2.156       .  S
C1820      N1848   1.313       .  A
C1820      C1823   1.411       .  S
C1820      H1854   1.083       .  S
C1823      N1844   1.378       .  A
C1823      C2489   1.471       .  S
N1824      N1830   1.316       .  A
N1825      C1851   1.338       .  A
N1825      N1827   1.326       .  A
N1825     Co2689   2.073       .  S
N1826      C1840   1.353       .  A
N1827      N1855   1.319       .  A
N1827     Co2693   2.100       .  S
H1828      C1851   1.081       .  S
H1829      C1846   1.080       .  S
N1831     Co1845   2.133       .  S
N1832      N1844   1.338       .  A
N1832      N1848   1.308       .  A
N1832     Co1841   2.168       .  S
C1833      N1837   1.325       .  A
C1833      C1847   1.471       .  S
C1833      C1886   1.426       .  S
C1834      C1853   1.484       .  S
C1834      H1838   1.081       .  S
N1835      C2694   1.341   1_545  A
N1835     Co1845   2.057       .  S
C1839      N1855   1.343       .  A
C1839      C1851   1.455       .  S
C1839      C1892   1.440       .  S
Co1841     N2673   2.073   1_545  S
Co1841    Cl1852   2.513       .  S
N1842      C1853   1.328       .  A
C1843      C2333   1.462       .  S
Co1845     N2675   2.100   1_545  S
Co1845    Cl1852   2.382       .  S
C1846      N2683   1.341       .  A
C1846      C2666   1.443       .  S
C1853      C2863   1.479   1_545  S
C1856      N1874   1.361       .  A
C1856      C1893   1.461       .  S
N1857      N1874   1.337       .  A
N1857      N1879   1.325       .  A
N1857     Co1894   2.116       .  S
C1858      N1883   1.358       .  A
C1858      C1896   1.460       .  S
C1858      H1903   1.076       .  S
H1859      C1900   1.081       .  S
C1860      N1884   1.358       .  A
C1860      C1864   1.493       .  S
C1860      H1889   1.082       .  S
Co1861     N1879   2.143       .  S
Co1861     N1869   1.982       .  S
Co1861     N1901   1.968       .  S
Co1861     N1877   2.119       .  S
Co1861    Cl1905   2.383       .  S
N1862      C1900   1.346       .  A
N1862      N1869   1.308       .  A
N1862     Co1863   2.101       .  S
Co1863     N1866   2.069       .  S
Co1863     N1883   2.086       .  S
Co1863     N1870   2.102       .  S
Co1863    Cl1905   2.482       .  S
C1864      N1902   1.344       .  A
C1864      C2118   1.468       .  S
N1865      N1872   1.324       .  A
N1865      N1895   1.320       .  A
N1865     Co1898   2.051       .  S
N1866      N1884   1.317       .  A
N1866      N1902   1.318       .  A
N1867      C1896   1.344       .  A
N1867      N1877   1.324       .  A
H1868      C1893   1.081       .  S
N1869      N1890   1.312       .  A
N1870      N1888   1.312       .  A
N1870      N1875   1.335       .  A
C1871      N1875   1.357       .  A
C1871      C1899   1.462       .  S
N1872      C1887   1.356       .  A
N1872     Co1894   2.132       .  S
C1873      N1901   1.315       .  A
C1873      C1876   1.413       .  S
C1873      H1907   1.084       .  S
C1876      N1897   1.376       .  A
C1876      C2436   1.466       .  S
N1877      N1883   1.319       .  A
N1878      C1904   1.337       .  A
N1878      N1880   1.329       .  A
N1878     Co1894   2.088       .  S
N1879      C1893   1.346       .  A
N1880      N1908   1.319       .  A
N1880     Co1898   2.099       .  S
H1881      C1904   1.082       .  S
H1882      C1899   1.082       .  S
N1884     Co1898   2.137       .  S
N1885      N1897   1.338       .  A
N1885      N1901   1.307       .  A
N1885     Co1894   2.162       .  S
C1886      N1890   1.328       .  A
C1886      C1900   1.465       .  S
C1887      C1906   1.477       .  S
C1887      H1891   1.082       .  S
N1888      C1899   1.347       .  A
N1888     Co1898   2.095       .  S
C1892      N1908   1.345       .  A
C1892      C1904   1.456       .  S
Co1894    Cl1905   2.502       .  S
N1895      C1906   1.336       .  A
C1896      C2492   1.486       .  S
Co1898    Cl1905   2.402       .  S
C1906      C1962   1.482       .  S
C1909      N1927   1.343       .  A
C1909      C1946   1.466       .  S
N1910      N1927   1.323       .  A
N1910      N1932   1.319       .  A
N1910     Co1947   2.095       .  S
C1911      N1936   1.358       .  A
C1911      C1949   1.497       .  S
C1911      H1956   1.081       .  S
H1912      C1953   1.082       .  S
C1913      N1937   1.341       .  A
C1913      C1917   1.463       .  S
C1913      H1942   1.081       .  S
Co1914     N1932   2.090   1_556  S
Co1914     N1922   2.092       .  S
Co1914     N1954   2.092       .  S
Co1914     N1930   2.067       .  S
Co1914    Cl1958   2.485       .  S
N1915      C1953   1.336       .  A
N1915      N1922   1.309       .  A
N1915     Co1916   2.044       .  S
Co1916     N1919   2.102       .  S
Co1916     N1936   2.151       .  S
Co1916     N1923   2.023       .  S
Co1916    Cl1958   2.393       .  S
C1917      N1955   1.345   1_554  A
C1917      C1970   1.451       .  S
N1918      N1925   1.311       .  A
N1918      N1948   1.333       .  A
N1918     Co1951   2.115       .  S
N1919      N1937   1.330   1_556  A
N1919      N1955   1.319       .  A
N1920      C1949   1.343       .  A
N1920      N1930   1.319       .  A
H1921      C1946   1.081       .  S
N1922      N1943   1.331       .  A
N1923      N1941   1.323       .  A
N1923      N1928   1.326       .  A
C1924      N1928   1.340       .  A
C1924      C1952   1.475       .  S
C1924      C2227   1.454       .  S
N1925      C1940   1.314       .  A
N1925     Co1947   1.978       .  S
C1926      N1954   1.345       .  A
C1926      C1929   1.467       .  S
C1926      H1960   1.082       .  S
C1929      N1950   1.328   1_556  A
C1929      C2830   1.424   1_545  S
N1930      N1936   1.319       .  A
N1931      C1957   1.344       .  A
N1931      N1933   1.326   1_554  A
N1931     Co1947   2.116       .  S
N1932      C1946   1.351       .  A
N1933      N1961   1.337       .  A
N1933     Co1951   2.141   1_556  S
H1934      C1957   1.082       .  S
H1935      C1952   1.081       .  S
N1937     Co1951   2.105       .  S
N1938      N1950   1.310       .  A
N1938      N1954   1.306   1_554  A
N1938     Co1947   1.982       .  S
C1939      N1943   1.359       .  A
C1939      C1953   1.441       .  S
C1939      C2098   1.466       .  S
C1940      C1959   1.418       .  S
C1940      H1944   1.083       .  S
N1941      C1952   1.347       .  A
N1941     Co1951   2.108   1_556  S
C1945      N1961   1.368       .  A
C1945      C1957   1.451   1_556  S
C1945      C2045   1.500       .  S
Co1947    Cl1958   2.373   1_554  S
N1948      C1959   1.360       .  A
C1949      C2121   1.467       .  S
Co1951    Cl1958   2.487   1_554  S
C1962      N1980   1.343       .  A
C1962      C1999   1.463       .  S
N1963      N1980   1.330       .  A
N1963      N1985   1.318       .  A
N1963     Co2000   2.098       .  S
C1964      N1989   1.362       .  A
C1964      C2002   1.487       .  S
C1964      H2009   1.081       .  S
H1965      C2006   1.081       .  S
C1966      N1990   1.340       .  A
C1966      C1970   1.461       .  S
C1966      H1995   1.081       .  S
Co1967     N1985   2.087   1_556  S
Co1967     N1975   2.098       .  S
Co1967     N2007   2.098       .  S
Co1967     N1983   2.066       .  S
Co1967    Cl2011   2.493       .  S
N1968      C2006   1.339       .  A
N1968      N1975   1.313       .  A
N1968     Co1969   2.069       .  S
Co1969     N1972   2.106       .  S
Co1969     N1989   2.157       .  S
Co1969     N1976   2.044       .  S
Co1969    Cl2011   2.407       .  S
C1970      N2008   1.346   1_554  A
N1971      N1978   1.307       .  A
N1971      N2001   1.339       .  A
N1971     Co2004   2.150       .  S
N1972      N1990   1.330   1_556  A
N1972      N2008   1.321       .  A
N1973      C2002   1.337       .  A
N1973      N1983   1.318       .  A
H1974      C1999   1.079       .  S
N1975      N1996   1.333   1_556  A
N1976      N1994   1.329       .  A
N1976      N1981   1.331       .  A
C1977      N1981   1.338       .  A
C1977      C2005   1.474       .  S
C1977      C2174   1.476       .  S
N1978      C1993   1.313       .  A
N1978     Co2000   1.971       .  S
C1979      N2007   1.345       .  A
C1979      C1982   1.469       .  S
C1979      H2013   1.080       .  S
C1982      N2003   1.328   1_556  A
C1982      C2777   1.424       .  S
N1983      N1989   1.324       .  A
N1984      C2010   1.348       .  A
N1984      N1986   1.325   1_554  A
N1984     Co2000   2.131       .  S
N1985      C1999   1.346       .  A
N1986      N2014   1.337       .  A
N1986     Co2004   2.137   1_556  S
H1987      C2010   1.082       .  S
H1988      C2005   1.081       .  S
N1990     Co2004   2.099       .  S
N1991      N2003   1.310       .  A
N1991      N2007   1.310   1_554  A
N1991     Co2000   1.985       .  S
C1992      N1996   1.359   1_556  A
C1992      C2006   1.449       .  S
C1992      C2104   1.481   1_556  S
C1993      C2012   1.414       .  S
C1993      H1997   1.083       .  S
N1994      C2005   1.345       .  A
N1994     Co2004   2.135   1_556  S
C1998      N2014   1.367       .  A
C1998      C2010   1.459   1_556  S
C1998      C2051   1.506       .  S
Co2000    Cl2011   2.380   1_554  S
N2001      C2012   1.372       .  A
C2002      C2330   1.485       .  S
Co2004    Cl2011   2.501   1_554  S
C2015      N2033   1.334       .  A
C2015      C2701   1.479       .  S
C2015      C2052   1.470       .  S
N2016      N2033   1.325       .  A
N2016      N2038   1.319       .  A
C2017      N2042   1.353       .  A
C2017      C2055   1.489       .  S
C2017      H2910   1.082       .  S
H2018      C2059   1.082       .  S
C2019      N2043   1.344       .  A
C2019      C2023   1.468   1_655  S
C2019      H2048   1.081       .  S
Co2020     N2038   2.093   1_556  S
Co2020     N2876   2.131       .  S
Co2020     N2060   2.106       .  S
Co2020     N2036   2.072       .  S
Co2020    Cl2064   2.487       .  S
N2021      C2059   1.346       .  A
N2021      N2028   1.313       .  A
N2021     Co2022   2.074       .  S
Co2022     N2025   2.094       .  S
Co2022     N2890   2.129   1_545  S
Co2022    Cl2912   2.399   1_545  S
N2024      N2879   1.306   1_545  A
N2024      N2054   1.339       .  A
N2024     Co2057   2.155       .  S
N2025      N2061   1.320       .  A
N2026      C2055   1.346       .  A
N2026      N2036   1.321       .  A
H2027      C2052   1.081       .  S
N2028      N2049   1.336   1_556  A
N2028     Co2868   2.131   1_545  S
N2029      N2047   1.324       .  A
N2029      N2034   1.321       .  A
C2030      N2034   1.333       .  A
C2030      C2058   1.475       .  S
C2030      C2171   1.473       .  S
N2031      C2894   1.311       .  A
N2031      N2872   1.306       .  A
N2031     Co2053   1.971       .  S
C2032      N2060   1.346       .  A
C2032      C2035   1.468       .  S
C2032      H2066   1.081       .  S
C2035      N2056   1.327   1_556  A
N2036      N2042   1.317       .  A
N2037      C2063   1.350       .  A
N2037      N2039   1.323       .  A
N2037     Co2053   2.134       .  S
N2038      C2052   1.349       .  A
N2039      N2067   1.336   1_554  A
N2039     Co2905   2.128       .  S
H2040      C2063   1.081       .  S
H2041      C2058   1.081       .  S
N2042     Co2870   2.129       .  S
N2043     Co2057   2.119       .  S
N2044      N2056   1.310       .  A
N2044      N2060   1.309   1_554  A
C2045      N2049   1.366   1_556  A
C2045      C2059   1.452       .  S
C2046      N2879   1.311       .  A
C2046      C2065   1.406   1_565  S
C2046      H2898   1.083       .  S
N2047      C2058   1.349       .  A
N2047     Co2057   2.128   1_556  S
H2050      C2894   1.083       .  S
C2051      N2067   1.365       .  A
C2051      C2063   1.463   1_556  S
N2054      C2065   1.377       .  A
C2055      C2280   1.462       .  S
Co2057     N2887   2.128   1_545  S
H2062      C2865   1.082       .  S
Cl2064    Co2870   2.399       .  S
C2065      C2634   1.466   1_545  S
C2068      N2086   1.344       .  A
C2068      C2105   1.456       .  S
N2069      N2086   1.327       .  A
N2069      N2091   1.316       .  A
C2070      N2095   1.358       .  A
C2070      C2108   1.479       .  S
C2070      H2115   1.081       .  S
H2071      C2112   1.081       .  S
C2072      N2096   1.344       .  A
C2072      C2076   1.466       .  S
C2072      H2101   1.082       .  S
Co2073     N2091   2.071   1_556  S
Co2073     N2081   2.095       .  S
Co2073     N2113   2.096       .  S
Co2073     N2089   2.055       .  S
N2074      C2112   1.340       .  A
N2074      N2081   1.312       .  A
N2074     Co2075   2.062       .  S
Co2075     N2095   2.132       .  S
C2076      N2114   1.342   1_554  A
N2077      N2084   1.311       .  A
N2077      N2107   1.338       .  A
N2077     Co2110   2.144       .  S
N2078      N2096   1.328   1_556  A
N2078      N2114   1.320       .  A
N2079      C2108   1.338       .  A
N2079      N2089   1.315       .  A
H2080      C2105   1.078       .  S
N2081      N2102   1.328   1_556  A
N2082      N2100   1.323       .  A
N2082      N2087   1.319       .  A
C2083      N2087   1.332       .  A
C2083      C2111   1.473       .  S
C2083      C2277   1.470       .  S
N2084      C2099   1.316       .  A
N2084     Co2106   1.988       .  S
C2085      N2113   1.346       .  A
C2085      C2088   1.467   1_655  S
C2085      H2119   1.080       .  S
N2089      N2095   1.320       .  A
N2090      C2116   1.347       .  A
N2090      N2092   1.323       .  A
N2090     Co2106   2.132       .  S
N2091      C2105   1.341       .  A
N2092      N2120   1.328   1_554  A
N2092     Co2110   2.089       .  S
H2093      C2116   1.082       .  S
H2094      C2111   1.081       .  S
N2096     Co2110   2.103       .  S
N2097      N2113   1.312   1_554  A
C2098      N2102   1.357   1_556  A
C2098      C2112   1.447       .  S
C2099      C2118   1.416       .  S
C2099      H2103   1.083       .  S
N2100      C2111   1.350       .  A
N2100     Co2110   2.126   1_556  S
C2104      N2120   1.356   1_554  A
C2104      C2116   1.457       .  S
Co2106    Cl2117   2.362   1_554  S
N2107      C2118   1.368       .  A
C2108      C2224   1.473       .  S
Co2110    Cl2117   2.502   1_554  S
C2121      N2139   1.313       .  A
C2121      C2158   1.488       .  S
N2122      N2139   1.304       .  A
N2122      N2144   1.308       .  A
N2122     Co2159   1.985       .  S
C2123      N2148   1.348       .  A
C2123      C2161   1.444       .  S
C2123      H2168   1.081       .  S
H2124      C2165   1.080       .  S
C2125      N2149   1.351       .  A
C2125      C2977   1.470       .  S
C2125      H2154   1.081   1_655  S
Co2126     N2144   2.126       .  S
Co2126     N2982   2.128       .  S
Co2126     N2166   2.124       .  S
Co2126     N2142   2.105       .  S
Co2126    Cl2170   2.485       .  S
N2127      C2165   1.327       .  A
N2127      N2134   1.333       .  A
N2127     Co2976   2.066       .  S
Co2128     N2975   2.066       .  S
Co2128     N2131   2.089       .  S
Co2128     N2148   2.040       .  S
Co2128     N2135   2.133       .  S
Co2128    Cl2170   2.428       .  S
C2129      N2167   1.349       .  A
C2129      C2973   1.470       .  S
N2130      N2137   1.319       .  A
N2130      N2160   1.331       .  A
N2130     Co2163   2.115       .  S
N2131      N2149   1.311       .  A
N2131      N3015   1.330       .  A
N2132      C2161   1.353       .  A
N2132      N2142   1.324       .  A
H2133      C3006   1.082       .  S
N2134      N2155   1.325       .  A
N2134     Co2974   2.128       .  S
N2135      N2153   1.325       .  A
N2135      N2140   1.337       .  A
C2136      N2140   1.363       .  A
C2136      C2164   1.454       .  S
C2136      C2479   1.486       .  S
N2137      C2152   1.339       .  A
N2137     Co2159   2.071       .  S
C2138      N2166   1.354       .  A
C2138      C2141   1.480       .  S
C2138      H2172   1.082       .  S
C2141      N2162   1.355       .  A
C2141      C2247   1.507       .  S
N2142      N2148   1.325       .  A
N2143      C2169   1.319       .  A
N2143      N2145   1.311       .  A
N2143     Co2159   1.967       .  S
N2144      C2158   1.365       .  A
N2145      N2173   1.324       .  A
N2145     Co2163   2.095       .  S
H2146      C2169   1.081       .  S
H2147      C2164   1.080       .  S
N2149     Co2163   2.091       .  S
N2150      N2162   1.333       .  A
N2150      N2166   1.327       .  A
N2150     Co2159   2.153       .  S
C2151      N2155   1.355       .  A
C2151      C2165   1.432       .  S
C2151      C2210   1.441       .  S
C2152      C2171   1.434       .  S
C2152      H2156   1.076       .  S
N2153      C2164   1.337       .  A
N2153     Co2163   2.100       .  S
C2157      N2173   1.353       .  A
C2157      C2169   1.421       .  S
C2157      C2204   1.425       .  S
C2158      H2981   1.082       .  S
Co2159    Cl2170   2.395       .  S
N2160      C2171   1.360       .  A
C2161      C3196   1.460   1_545  S
Co2163    Cl2170   2.463       .  S
N2167      N2979   1.330       .  A
C2174      N2192   1.312       .  A
C2174      C2211   1.499       .  S
N2175      N2192   1.305       .  A
N2175      N2197   1.307       .  A
N2175     Co2212   1.999       .  S
C2176      N2201   1.342       .  A
C2176      C2214   1.447       .  S
C2176      H2221   1.082       .  S
H2177      C2218   1.079       .  S
C2178      N2202   1.356       .  A
C2178      C2182   1.476       .  S
C2178      H2207   1.081   1_655  S
Co2179     N2197   2.152       .  S
Co2179     N2187   2.088       .  S
Co2179     N2219   2.063       .  S
Co2179     N2195   2.133       .  S
Co2179    Cl2223   2.490       .  S
N2180      C2218   1.330       .  A
N2180      N2187   1.329       .  A
N2180     Co2181   2.060       .  S
Co2181     N2184   2.099       .  S
Co2181     N2201   2.053       .  S
Co2181     N2188   2.123       .  S
Co2181    Cl2223   2.415       .  S
C2182      N2220   1.351       .  A
N2183      N2190   1.317       .  A
N2183      N2213   1.334       .  A
N2183     Co2216   2.084       .  S
N2184      N2202   1.312       .  A
N2184      N2220   1.333       .  A
N2185      C2214   1.359       .  A
N2185      N2195   1.333       .  A
H2186      C2211   1.082       .  S
N2187      N2208   1.317       .  A
N2188      N2206   1.317       .  A
N2188      N2193   1.331       .  A
C2189      N2193   1.368       .  A
C2189      C2217   1.459       .  S
C2189      C2507   1.460       .  S
N2190      C2205   1.335       .  A
N2190     Co2212   2.095       .  S
C2191      N2219   1.341       .  A
C2191      C2194   1.457       .  S
C2191      H2225   1.082       .  S
C2194      N2215   1.359       .  A
C2194      C2288   1.485       .  S
N2195      N2201   1.324       .  A
N2196      C2222   1.330       .  A
N2196      N2198   1.313       .  A
N2196     Co2212   1.988       .  S
N2197      C2211   1.365       .  A
N2198      N2226   1.323       .  A
N2198     Co2216   2.119       .  S
H2199      C2222   1.081       .  S
H2200      C2217   1.079       .  S
N2202     Co2216   2.112       .  S
N2203      N2215   1.333       .  A
N2203      N2219   1.325       .  A
N2203     Co2212   2.167       .  S
C2204      N2208   1.349       .  A
C2204      C2218   1.430       .  S
C2205      C2224   1.445       .  S
C2205      H2209   1.079       .  S
N2206      C2217   1.340       .  A
N2206     Co2216   2.082       .  S
C2210      N2226   1.354       .  A
C2210      C2222   1.433       .  S
Co2212    Cl2223   2.387       .  S
N2213      C2224   1.353       .  A
C2214      C2426   1.490       .  S
Co2216    Cl2223   2.464       .  S
C2227      N2245   1.308       .  A
C2227      C2264   1.498       .  S
N2228      N2245   1.298       .  A
N2228      N2250   1.307       .  A
N2228     Co2265   1.965       .  S
C2229      N2254   1.340       .  A
C2229      C2267   1.444       .  S
C2229      H2274   1.082       .  S
H2230      C2271   1.081       .  S
C2231      N2255   1.365       .  A
C2231      C2235   1.494       .  S
C2231      H2260   1.082       .  S
Co2232     N2250   2.141       .  S
Co2232     N2240   2.093       .  S
Co2232     N2272   2.135       .  S
Co2232     N2248   2.125       .  S
Co2232    Cl2276   2.499       .  S
N2233      C2271   1.333       .  A
N2233      N2240   1.328       .  A
N2233     Co2234   2.095       .  S
Co2234     N2237   2.048       .  S
Co2234     N2254   2.026       .  S
Co2234     N2241   2.160       .  S
Co2234    Cl2276   2.394       .  S
C2235      N2273   1.337       .  A
N2236      N2243   1.319       .  A
N2236      N2266   1.327       .  A
N2236     Co2269   2.076       .  S
N2237      N2255   1.313       .  A
N2237      N2273   1.324       .  A
N2238      C2267   1.363       .  A
N2238      N2248   1.330       .  A
H2239      C2264   1.081       .  S
N2240      N2261   1.323       .  A
N2241      N2259   1.316       .  A
N2241      N2246   1.335       .  A
C2242      N2246   1.377       .  A
C2242      C2270   1.440       .  S
C2242      C2454   1.459       .  S
N2243      C2258   1.342       .  A
N2243     Co2265   2.106       .  S
C2244      N2272   1.357       .  A
C2244      C2247   1.480       .  S
C2244      H2278   1.081       .  S
C2247      N2268   1.351       .  A
N2248      N2254   1.323       .  A
N2249      C2275   1.323       .  A
N2249      N2251   1.308       .  A
N2249     Co2265   1.967       .  S
N2250      C2264   1.362       .  A
N2251      N2279   1.325       .  A
N2251     Co2269   2.125       .  S
H2252      C2275   1.078       .  S
H2253      C2270   1.081       .  S
N2255     Co2269   2.150       .  S
N2256      N2268   1.332       .  A
N2256      N2272   1.325       .  A
N2256     Co2265   2.135       .  S
C2257      N2261   1.351       .  A
C2257      C2271   1.449       .  S
C2257      C2310   1.445       .  S
C2258      C2277   1.439       .  S
C2258      H2262   1.076       .  S
N2259      C2270   1.331       .  A
N2259     Co2269   2.042       .  S
C2263      N2279   1.358       .  A
C2263      C2275   1.425       .  S
C2263      C2316   1.427       .  S
Co2265    Cl2276   2.390       .  S
N2266      C2277   1.354       .  A
C2267      C2401   1.456       .  S
Co2269    Cl2276   2.481       .  S
C2280      N2298   1.316       .  A
C2280      C2317   1.487       .  S
N2281      N2298   1.304       .  A
N2281      N2303   1.311       .  A
N2281     Co2318   1.986       .  S
C2282      N2307   1.338       .  A
C2282      C2320   1.444       .  S
C2282      H2327   1.082       .  S
H2283      C2324   1.081       .  S
C2284      N2308   1.347       .  A
C2284      C2288   1.459       .  S
C2284      H2313   1.081       .  S
Co2285     N2303   2.137       .  S
Co2285     N2293   2.093       .  S
Co2285     N2325   2.095       .  S
Co2285     N2301   2.116       .  S
Co2285    Cl2329   2.490       .  S
N2286      C2324   1.336       .  A
N2286      N2293   1.330       .  A
N2286     Co2287   2.102       .  S
Co2287     N2290   2.110       .  S
Co2287     N2307   2.057       .  S
Co2287     N2294   2.149       .  S
Co2287    Cl2329   2.415       .  S
C2288      N2326   1.355       .  A
N2289      N2296   1.318       .  A
N2289      N2319   1.335       .  A
N2289     Co2322   2.086       .  S
N2290      N2308   1.312       .  A
N2290      N2326   1.330       .  A
N2291      C2320   1.356       .  A
N2291      N2301   1.330       .  A
H2292      C2317   1.082       .  S
N2293      N2314   1.322       .  A
N2294      N2312   1.321       .  A
N2294      N2299   1.340       .  A
C2295      N2299   1.368       .  A
C2295      C2323   1.439       .  S
C2295      C3221   1.481       .  S
N2296      C2311   1.342       .  A
N2296     Co2318   2.105       .  S
C2297      N2325   1.350       .  A
C2297      C3148   1.471       .  S
C2297      H2331   1.082       .  S
C2300      N2321   1.350   1_565  A
C2300      C3145   1.471       .  S
N2301      N2307   1.323       .  A
N2302      C2328   1.324       .  A
N2302      N2304   1.309       .  A
N2302     Co3166   1.982   1_545  S
N2303      C2317   1.362       .  A
N2304      N2332   1.325       .  A
N2304     Co3170   2.103   1_545  S
H2305      C2328   1.078       .  S
H2306      C3171   1.080   1_545  S
N2308     Co2322   2.067       .  S
N2309      N3169   1.330       .  A
N2309      N2325   1.324       .  A
N2309     Co2318   2.149       .  S
C2310      N2314   1.348       .  A
C2310      C2324   1.453       .  S
C2311      C2330   1.450       .  S
C2311      H2315   1.077       .  S
N2312      C2323   1.329       .  A
N2312     Co2322   2.061       .  S
C2316      N2332   1.355       .  A
C2316      C2328   1.424       .  S
Co2318     N3150   1.982       .  S
Co2318    Cl2329   2.396       .  S
N2319      C2330   1.352       .  A
C2320      C2532   1.474       .  S
N2321      N3157   1.330   1_545  A
Co2322     N3152   2.103       .  S
Co2322    Cl2329   2.467       .  S
C2323      H3154   1.080       .  S
C2333      N2351   1.361       .  A
C2333      C2370   1.439       .  S
N2334      N2351   1.333       .  A
N2334      N2356   1.319       .  A
N2334     Co3219   2.126   1_545  S
C2335      N2360   1.337       .  A
C2335      C2373   1.446       .  S
C2335      H2380   1.076       .  S
H2336      C2377   1.074       .  S
C2337      N2361   1.350       .  A
C2337      C2341   1.472       .  S
C2337      H2366   1.081       .  S
Co2338     N2356   2.047       .  S
Co2338     N2346   2.132       .  S
Co2338     N3226   2.084   1_545  S
Co2338     N2354   2.079       .  S
Co2338    Cl2382   2.469       .  S
N2339      C2377   1.323       .  A
N2339      N2346   1.311       .  A
N2339     Co2340   1.983       .  S
Co2340     N2343   2.142       .  S
Co2340     N2360   2.093       .  S
Co2340     N3195   1.995       .  S
Co2340    Cl2382   2.390       .  S
C2341      N2379   1.350       .  A
C2341      C2459   1.495       .  S
N2342      N2349   1.322       .  A
N2342      N2372   1.330       .  A
N2342     Co2375   2.132       .  S
N2343      N2361   1.323       .  A
N2343      N2379   1.331       .  A
N2344      C2373   1.352       .  A
N2344      N2354   1.335       .  A
H2345      C2370   1.082       .  S
N2346      N2367   1.330       .  A
N2347      N2365   1.311       .  A
N2347      N2352   1.302       .  A
N2347     Co3188   1.995       .  S
C2348      N2352   1.314       .  A
C2348      C3009   1.460       .  S
C2348      C2376   1.490       .  S
N2349      C2364   1.334       .  A
N2349     Co2371   2.029       .  S
C2350      N2378   1.347       .  A
C2350      C2353   1.467       .  S
C2350      H2384   1.082       .  S
C2353      N2374   1.341       .  A
C2353      C2512   1.460       .  S
N2354      N2360   1.315       .  A
N2355      C2381   1.335       .  A
N2355      N2357   1.326       .  A
N2355     Co2371   2.092       .  S
N2356      C2370   1.329       .  A
N2357      N2385   1.324       .  A
N2357     Co2375   2.092       .  S
H2358      C2381   1.081       .  S
H2359      C2376   1.081       .  S
N2361     Co3223   2.097   1_545  S
N2362      N2374   1.322       .  A
N2362      N2378   1.312       .  A
N2362     Co2371   2.062       .  S
C2363      N2367   1.364       .  A
C2363      C2377   1.422       .  S
C2363      C2416   1.437       .  S
C2364      C2383   1.435       .  S
C2364      H2368   1.082       .  S
N2365      C2376   1.359       .  A
N2365     Co2375   2.138       .  S
C2369      N2385   1.351       .  A
C2369      C2381   1.448       .  S
C2369      C2422   1.447       .  S
Co2371     N3182   2.126       .  S
Co2371    Cl3230   2.397       .  S
N2372      C2383   1.360       .  A
C2373      C3143   1.481   1_545  S
Co2375     N3209   2.097       .  S
Co2375    Cl3230   2.493       .  S
N2378     Co3186   2.084       .  S
Cl2382    Co3219   2.397   1_545  S
Cl2382    Co3223   2.493   1_545  S
C2386      N2404   1.370       .  A
C2386      C2423   1.438       .  S
N2387      N2404   1.339       .  A
N2387      N2409   1.320       .  A
N2387     Co2424   2.149       .  S
C2388      N2413   1.350       .  A
C2388      C2426   1.448       .  S
C2388      H2433   1.075       .  S
H2389      C2430   1.078       .  S
C2390      N2414   1.360       .  A
C2390      C2394   1.487       .  S
C2390      H2419   1.081       .  S
Co2391     N2409   2.052       .  S
Co2391     N2399   2.134       .  S
Co2391     N2431   2.124       .  S
Co2391     N2407   2.088       .  S
Co2391    Cl2435   2.469       .  S
N2392      C2430   1.325       .  A
N2392      N2399   1.308       .  A
N2392     Co2393   1.975       .  S
Co2393     N2396   2.138       .  S
Co2393     N2413   2.117       .  S
Co2393     N2400   1.967       .  S
Co2393    Cl2435   2.420       .  S
C2394      N2432   1.351       .  A
C2394      C2447   1.516       .  S
N2395      N2402   1.326       .  A
N2395      N2425   1.327       .  A
N2395     Co2428   2.131       .  S
N2396      N2414   1.325       .  A
N2396      N2432   1.333       .  A
N2397      C2426   1.354       .  A
N2397      N2407   1.330       .  A
H2398      C2423   1.082       .  S
N2399      N2420   1.329       .  A
N2400      N2418   1.308       .  A
N2400      N2405   1.301       .  A
C2401      N2405   1.311       .  A
C2401      C2429   1.498       .  S
N2402      C2417   1.343       .  A
N2402     Co2424   2.040       .  S
C2403      N2431   1.356       .  A
C2403      C2406   1.482       .  S
C2403      H2437   1.082       .  S
C2406      N2427   1.342       .  A
C2406      C2500   1.495       .  S
N2407      N2413   1.318       .  A
N2408      C2434   1.333       .  A
N2408      N2410   1.330       .  A
N2408     Co2424   2.093       .  S
N2409      C2423   1.327       .  A
N2410      N2438   1.324       .  A
N2410     Co2428   2.106       .  S
H2411      C2434   1.081       .  S
H2412      C2429   1.081       .  S
N2414     Co2428   2.152       .  S
N2415      N2427   1.327       .  A
N2415      N2431   1.313       .  A
N2415     Co2424   2.064       .  S
C2416      N2420   1.364       .  A
C2416      C2430   1.424       .  S
C2417      C2436   1.443       .  S
C2417      H2421   1.081       .  S
N2418      C2429   1.362       .  A
N2418     Co2428   2.147       .  S
C2422      N2438   1.353       .  A
C2422      C2434   1.447       .  S
Co2424    Cl2435   2.421       .  S
N2425      C2436   1.361       .  A
Co2428    Cl2435   2.478       .  S
C2439      N2457   1.375       .  A
C2439      C2476   1.449       .  S
N2440      N2457   1.338       .  A
N2440      N2462   1.318       .  A
N2440     Co2477   2.156       .  S
C2441      N2466   1.340       .  A
C2441      C2479   1.447       .  S
C2441      H2486   1.077       .  S
H2442      C2483   1.075       .  S
C2443      N2467   1.361       .  A
C2443      C2447   1.490       .  S
C2443      H2472   1.081       .  S
Co2444     N2462   2.075       .  S
Co2444     N2452   2.105       .  S
Co2444     N2484   2.102       .  S
Co2444     N2460   2.099       .  S
Co2444    Cl2488   2.478       .  S
N2445      C2483   1.322       .  A
N2445     Co2446   1.965       .  S
Co2446     N2449   2.141       .  S
Co2446     N2453   1.969       .  S
C2447      N2485   1.349       .  A
N2448      N2455   1.323       .  A
N2448      N2478   1.327       .  A
N2448     Co2481   2.123       .  S
N2449      N2467   1.327       .  A
N2449      N2485   1.332       .  A
N2450      C2479   1.358       .  A
N2450      N2460   1.336       .  A
H2451      C2476   1.079       .  S
N2452      N2473   1.325       .  A
N2453      N2471   1.314       .  A
N2453      N2458   1.306       .  A
C2454      N2458   1.314       .  A
C2454      C2482   1.483       .  S
N2455      C2470   1.346       .  A
C2456      N2484   1.354       .  A
C2456      C2459   1.476       .  S
C2456      H2490   1.082       .  S
C2459      N2480   1.347       .  A
N2460      N2466   1.320       .  A
N2461      C2487   1.335       .  A
N2461     Co2477   2.102       .  S
N2462      C2476   1.335       .  A
N2463      N2491   1.325       .  A
N2463     Co2481   2.123       .  S
H2464      C2487   1.082       .  S
H2465      C2482   1.081       .  S
N2467     Co2481   2.150       .  S
N2468      N2480   1.329       .  A
N2468      N2484   1.311       .  A
N2468     Co2477   2.079       .  S
C2469      N2473   1.357       .  A
C2470      C2489   1.443       .  S
C2470      H2474   1.081       .  S
N2471      C2482   1.362       .  A
N2471     Co2481   2.136       .  S
C2475      N2491   1.354       .  A
Co2477    Cl2488   2.411       .  S
N2478      C2489   1.362       .  A
C2492      N2510   1.371       .  A
C2492      C2529   1.438       .  S
N2493      N2510   1.341       .  A
N2493      N2515   1.321       .  A
N2493     Co2530   2.164       .  S
C2494      N2519   1.345       .  A
C2494      C2532   1.445       .  S
C2494      H2539   1.077       .  S
H2495      C2536   1.077       .  S
C2496      N2520   1.355       .  A
C2496      C2500   1.482       .  S
C2496      H2525   1.081       .  S
Co2497     N2515   2.055       .  S
Co2497     N2505   2.096       .  S
Co2497     N2537   2.080       .  S
Co2497     N2513   2.083       .  S
N2498      C2536   1.324   1_455  A
N2498     Co2499   1.993   1_455  S
Co2499     N2502   2.122       .  S
Co2499     N2506   1.982       .  S
Co2499    Cl2541   2.400   1_655  S
C2500      N2538   1.343       .  A
N2501      N2508   1.325       .  A
N2501      N2531   1.327       .  A
N2501     Co2534   2.130       .  S
N2502      N2520   1.325       .  A
N2502      N2538   1.328       .  A
N2503      C2532   1.351       .  A
N2503      N2513   1.328       .  A
H2504      C2529   1.082       .  S
N2505      N2526   1.325       .  A
N2506      N2524   1.310       .  A
N2506      N2511   1.303       .  A
C2507      N2511   1.317       .  A
C2507      C2535   1.488       .  S
N2508      C2523   1.345       .  A
C2509      N2537   1.348       .  A
C2509      C2512   1.469       .  S
C2509      H2543   1.082       .  S
C2512      N2533   1.338       .  A
N2513      N2519   1.316       .  A
N2514      C2540   1.337       .  A
N2514     Co2530   2.108       .  S
N2515      C2529   1.331       .  A
N2516      N2544   1.324       .  A
N2516     Co2534   2.100       .  S
H2517      C2540   1.081       .  S
H2518      C2535   1.081       .  S
N2520     Co2534   2.128       .  S
N2521      N2533   1.320       .  A
N2521      N2537   1.312       .  A
N2521     Co2530   2.054       .  S
C2522      N2526   1.357       .  A
C2523      C2542   1.445       .  S
C2523      H2527   1.082   1_655  S
N2524      C2535   1.360       .  A
N2524     Co2534   2.134       .  S
C2528      N2544   1.352   1_455  A
N2531      C2542   1.361       .  A
Co2534    Cl2541   2.480   1_655  S
C2545      N2563   1.314       .  A
C2545      C2582   1.488       .  S
C2545      C3287   1.471       .  S
N2546      N2563   1.306       .  A
N2546      N2568   1.309       .  A
N2546     Co2583   1.985       .  S
C2547      N2572   1.335       .  A
C2547      C2585   1.444       .  S
C2547      H2592   1.082       .  S
H2548      C2589   1.080       .  S
C2549      N2573   1.345       .  A
C2549      C2553   1.462       .  S
C2549      H2578   1.081       .  S
Co2550     N2568   2.132       .  S
Co2550     N2558   2.109       .  S
Co2550     N2590   2.086       .  S
Co2550     N2566   2.113       .  S
Co2550    Cl2594   2.489       .  S
N2551      C2589   1.326       .  A
N2551      N2558   1.332       .  A
N2551     Co2552   2.059       .  S
Co2552     N2555   2.121       .  S
Co2552     N2572   2.057       .  S
Co2552     N2559   2.114       .  S
Co2552    Cl2594   2.410       .  S
C2553      N2591   1.359       .  A
C2553      C2704   1.502       .  S
N2554      N2561   1.320       .  A
N2554      N2584   1.336       .  A
N2554     Co2587   2.094       .  S
N2555      N2573   1.311       .  A
N2555      N2591   1.337       .  A
N2556      C2585   1.354       .  A
N2556      N2566   1.330       .  A
H2557      C2582   1.082       .  S
N2558      N2579   1.322       .  A
N2559      N2577   1.322       .  A
N2559      N2564   1.332       .  A
C2560      N2564   1.357       .  A
C2560      C2588   1.456       .  S
C2560      C2757   1.476       .  S
N2561      C2576   1.337       .  A
N2561     Co2583   2.095       .  S
C2562      N2590   1.347       .  A
C2562      C2565   1.466       .  S
C2562      H2596   1.082       .  S
C2565      N2586   1.363       .  A
N2566      N2572   1.325       .  A
N2567      C2593   1.320       .  A
N2567      N2569   1.313       .  A
N2567     Co2583   1.974       .  S
N2568      C2582   1.366       .  A
N2569      N2597   1.323       .  A
N2569     Co2587   2.097       .  S
H2570      C2593   1.082       .  S
H2571      C2588   1.081       .  S
N2573     Co2587   2.076       .  S
N2574      N2586   1.336       .  A
N2574      N2590   1.325       .  A
N2574     Co2583   2.180       .  S
C2575      N2579   1.350       .  A
C2575      C2589   1.430       .  S
C2575      C2638   1.429       .  S
C2576      C2595   1.444       .  S
C2576      H2580   1.077       .  S
N2577      C2588   1.339       .  A
N2577     Co2587   2.091       .  S
C2581      N2597   1.353       .  A
C2581      C2593   1.423       .  S
C2581      C2648   1.425       .  S
Co2583    Cl2594   2.390       .  S
N2584      C2595   1.353       .  A
C2585      C2916   1.472       .  S
Co2587    Cl2594   2.478       .  S
C2595      C3234   1.476       .  S
C2598      N2616   1.342       .  A
C2598      C2666   1.494       .  S
N2599      N2621   1.310       .  A
N2599     Co2636   2.065       .  S
C2600      N2625   1.327       .  A
C2600      C2638   1.431       .  S
C2600      H2645   1.081       .  S
H2601      C2642   1.076       .  S
C2602      N2626   1.363       .  A
C2602      C2606   1.497       .  S
C2602      H2631   1.082       .  S
Co2603     N2621   2.117       .  S
Co2603     N2611   2.094       .  S
Co2603     N2643   2.092       .  S
Co2603     N2619   2.095       .  S
Co2603    Cl2647   2.459       .  S
N2604      C2642   1.341       .  A
N2604      N2611   1.320       .  A
N2604     Co2605   2.093       .  S
Co2605     N2608   1.973       .  S
Co2605     N2625   1.980       .  S
Co2605     N2612   2.153       .  S
Co2605    Cl2647   2.400       .  S
C2606      N2644   1.310       .  A
C2606      C3390   1.462       .  S
N2607      N2614   1.330       .  A
N2607      N2637   1.318       .  A
N2608      N2626   1.305       .  A
N2608      N2644   1.301       .  A
N2609      C2638   1.350       .  A
N2609      N2619   1.320       .  A
H2610      C2635   1.081       .  S
N2611      N2632   1.328       .  A
N2612      N2630   1.328       .  A
N2612      N2617   1.334       .  A
C2613      N2617   1.358       .  A
C2613      C2641   1.468       .  S
N2614      C2629   1.329       .  A
C2615      N2643   1.341       .  A
C2615      C2618   1.461       .  S
C2615      H2649   1.080       .  S
C2618      N2639   1.371       .  A
C2618      C2860   1.467       .  S
N2619      N2625   1.311       .  A
N2620      C2646   1.349       .  A
N2620      N2622   1.322       .  A
N2620     Co2636   2.033       .  S
N2621      C2635   1.357       .  A
N2622      N2650   1.325       .  A
N2622     Co2640   2.107       .  S
H2623      C2646   1.081       .  S
H2624      C2641   1.082       .  S
N2626     Co2640   2.133       .  S
N2627      N2639   1.331       .  A
N2627      N2643   1.318       .  A
N2627     Co2636   2.128       .  S
C2628      N2632   1.356       .  A
C2628      C2642   1.437       .  S
C2628      C3231   1.470       .  S
C2629      C2648   1.429       .  S
C2629      H2633   1.080       .  S
N2630      C2641   1.347       .  A
N2630     Co2640   2.107       .  S
C2634      N2650   1.357       .  A
C2634      C2646   1.450       .  S
Co2636    Cl2647   2.419       .  S
N2637      C2648   1.350       .  A
Co2640    Cl2647   2.475       .  S
C2651      N2669   1.357       .  A
C2651      C2688   1.472       .  S
N2652      N2669   1.334       .  A
N2652      N2674   1.325       .  A
N2652     Co2689   2.095       .  S
C2653      N2678   1.348       .  A
C2653      C2691   1.454       .  S
C2653      H2698   1.079       .  S
H2654      C2695   1.082       .  S
C2655      N2679   1.353       .  A
C2655      C2659   1.492       .  S
C2655      H2684   1.081       .  S
Co2656     N2674   2.163       .  S
Co2656     N2664   1.970       .  S
Co2656     N2696   1.974       .  S
Co2656     N2672   2.115       .  S
Co2656    Cl2700   2.362       .  S
N2657      C2695   1.348       .  A
N2657      N2664   1.312       .  A
N2657     Co2658   2.124       .  S
Co2658     N2661   2.029       .  S
Co2658     N2678   2.044       .  S
Co2658     N2665   2.144       .  S
Co2658    Cl2700   2.491       .  S
C2659      N2697   1.337       .  A
C2659      C2807   1.451       .  S
N2660      N2667   1.325       .  A
N2660      N2690   1.317       .  A
N2660     Co2693   2.022       .  S
N2661      N2679   1.313       .  A
N2661      N2697   1.315       .  A
N2662      C2691   1.341       .  A
N2662      N2672   1.319       .  A
H2663      C2688   1.082       .  S
N2664      N2685   1.309       .  A
N2665      N2683   1.312       .  A
N2665      N2670   1.339       .  A
C2666      N2670   1.369       .  A
N2667      C2682   1.358       .  A
N2667     Co2689   2.156       .  S
C2668      N2696   1.313       .  A
C2668      C2671   1.411       .  S
C2668      H2702   1.083       .  S
C2671      N2692   1.378       .  A
C2671      C3337   1.471       .  S
N2672      N2678   1.316       .  A
N2673      C2699   1.338       .  A
N2673      N2675   1.326       .  A
N2674      C2688   1.353       .  A
N2675      N2703   1.319       .  A
H2676      C2699   1.081       .  S
H2677      C2694   1.080       .  S
N2679     Co2693   2.133       .  S
N2680      N2692   1.338       .  A
N2680      N2696   1.308       .  A
N2680     Co2689   2.168       .  S
C2681      N2685   1.325       .  A
C2681      C2695   1.471       .  S
C2681      C2734   1.426       .  S
C2682      C2701   1.484       .  S
C2682      H2686   1.081       .  S
N2683     Co2693   2.057       .  S
C2687      N2703   1.343       .  A
C2687      C2699   1.455       .  S
C2687      C2740   1.440       .  S
Co2689    Cl2700   2.513       .  S
N2690      C2701   1.328       .  A
C2691      C3181   1.462       .  S
Co2693    Cl2700   2.382       .  S
C2704      N2722   1.361       .  A
C2704      C2741   1.461       .  S
N2705      N2722   1.337       .  A
N2705      N2727   1.325       .  A
N2705     Co2742   2.116       .  S
C2706      N2731   1.358       .  A
C2706      C2744   1.460       .  S
C2706      H2751   1.076       .  S
H2707      C2748   1.081       .  S
C2708      N2732   1.358       .  A
C2708      C2712   1.493       .  S
C2708      H2737   1.082       .  S
Co2709     N2727   2.143       .  S
Co2709     N2717   1.982       .  S
Co2709     N2749   1.968       .  S
Co2709     N2725   2.119       .  S
Co2709    Cl2753   2.383       .  S
N2710      C2748   1.346       .  A
N2710      N2717   1.308       .  A
N2710     Co2711   2.101       .  S
Co2711     N2714   2.069       .  S
Co2711     N2731   2.086       .  S
Co2711     N2718   2.102       .  S
Co2711    Cl2753   2.482       .  S
C2712      N2750   1.344       .  A
C2712      C2966   1.468       .  S
N2713      N2720   1.324       .  A
N2713      N2743   1.320       .  A
N2713     Co2746   2.051       .  S
N2714      N2732   1.317       .  A
N2714      N2750   1.318       .  A
N2715      C2744   1.344       .  A
N2715      N2725   1.324       .  A
H2716      C2741   1.081       .  S
N2717      N2738   1.312       .  A
N2718      N2736   1.312       .  A
N2718      N2723   1.335       .  A
C2719      N2723   1.357       .  A
C2719      C2747   1.462       .  S
N2720      C2735   1.356       .  A
N2720     Co2742   2.132       .  S
C2721      N2749   1.315       .  A
C2721      C2724   1.413       .  S
C2721      H2755   1.084       .  S
C2724      N2745   1.376       .  A
C2724      C3284   1.466       .  S
N2725      N2731   1.319       .  A
N2726      C2752   1.337       .  A
N2726      N2728   1.329       .  A
N2726     Co2742   2.088       .  S
N2727      C2741   1.346       .  A
N2728      N2756   1.319       .  A
N2728     Co2746   2.099       .  S
H2729      C2752   1.082       .  S
H2730      C2747   1.082       .  S
N2732     Co2746   2.137       .  S
N2733      N2745   1.338       .  A
N2733      N2749   1.307       .  A
N2733     Co2742   2.162       .  S
C2734      N2738   1.328       .  A
C2734      C2748   1.465       .  S
C2735      C2754   1.477       .  S
C2735      H2739   1.082       .  S
N2736      C2747   1.347       .  A
N2736     Co2746   2.095       .  S
C2740      N2756   1.345       .  A
C2740      C2752   1.456       .  S
Co2742    Cl2753   2.502       .  S
N2743      C2754   1.336       .  A
C2744      C3340   1.486       .  S
Co2746    Cl2753   2.402       .  S
C2754      C2810   1.483       .  S
C2757      N2775   1.343       .  A
C2757      C2794   1.466       .  S
N2758      N2775   1.323       .  A
N2758      N2780   1.319       .  A
N2758     Co2795   2.095       .  S
C2759      N2784   1.358       .  A
C2759      C2797   1.497       .  S
C2759      H2804   1.081       .  S
H2760      C2801   1.082       .  S
C2761      N2785   1.341       .  A
C2761      C2765   1.463       .  S
C2761      H2790   1.081       .  S
Co2762     N2780   2.090   1_556  S
Co2762     N2770   2.092       .  S
Co2762     N2802   2.092       .  S
Co2762     N2778   2.067       .  S
Co2762    Cl2806   2.485       .  S
N2763      C2801   1.336       .  A
N2763      N2770   1.309       .  A
N2763     Co2764   2.044       .  S
Co2764     N2767   2.102       .  S
Co2764     N2784   2.151       .  S
Co2764     N2771   2.023       .  S
Co2764    Cl2806   2.393       .  S
C2765      N2803   1.345   1_554  A
C2765      C2818   1.451       .  S
N2766      N2773   1.311       .  A
N2766      N2796   1.333       .  A
N2766     Co2799   2.115       .  S
N2767      N2785   1.330   1_556  A
N2767      N2803   1.319       .  A
N2768      C2797   1.343       .  A
N2768      N2778   1.319       .  A
H2769      C2794   1.081       .  S
N2770      N2791   1.331       .  A
N2771      N2789   1.323       .  A
N2771      N2776   1.326       .  A
C2772      N2776   1.340       .  A
C2772      C2800   1.475       .  S
C2772      C3075   1.454       .  S
N2773      C2788   1.314       .  A
N2773     Co2795   1.978       .  S
C2774      N2802   1.345       .  A
C2774      C2777   1.467       .  S
C2774      H2808   1.082       .  S
C2777      N2798   1.328   1_556  A
N2778      N2784   1.319       .  A
N2779      C2805   1.344       .  A
N2779      N2781   1.326   1_554  A
N2779     Co2795   2.116       .  S
N2780      C2794   1.351       .  A
N2781      N2809   1.337       .  A
N2781     Co2799   2.141   1_556  S
H2782      C2805   1.082       .  S
H2783      C2800   1.081       .  S
N2785     Co2799   2.105       .  S
N2786      N2798   1.310       .  A
N2786      N2802   1.306   1_554  A
N2786     Co2795   1.982       .  S
C2787      N2791   1.359       .  A
C2787      C2801   1.441       .  S
C2787      C2946   1.466       .  S
C2788      C2807   1.418       .  S
C2788      H2792   1.083       .  S
N2789      C2800   1.347       .  A
N2789     Co2799   2.108   1_556  S
C2793      N2809   1.368       .  A
C2793      C2805   1.451   1_556  S
C2793      C2893   1.500       .  S
Co2795    Cl2806   2.373   1_554  S
N2796      C2807   1.360       .  A
C2797      C2969   1.467       .  S
Co2799    Cl2806   2.487   1_554  S
C2810      N2828   1.343       .  A
C2810      C2847   1.463       .  S
N2811      N2828   1.330       .  A
N2811      N2833   1.318       .  A
N2811     Co2848   2.098       .  S
C2812      N2837   1.362       .  A
C2812      C2850   1.487       .  S
C2812      H2857   1.081       .  S
H2813      C2854   1.081       .  S
C2814      N2838   1.340       .  A
C2814      C2818   1.461       .  S
C2814      H2843   1.081       .  S
Co2815     N2833   2.087   1_556  S
Co2815     N2823   2.098       .  S
Co2815     N2855   2.098       .  S
Co2815     N2831   2.066       .  S
Co2815    Cl2859   2.493       .  S
N2816      C2854   1.339       .  A
N2816      N2823   1.313       .  A
N2816     Co2817   2.070       .  S
Co2817     N2820   2.106       .  S
Co2817     N2837   2.157       .  S
Co2817     N2824   2.044       .  S
Co2817    Cl2859   2.407       .  S
C2818      N2856   1.346   1_554  A
N2819      N2826   1.307       .  A
N2819      N2849   1.339       .  A
N2819     Co2852   2.150       .  S
N2820      N2838   1.330   1_556  A
N2820      N2856   1.321       .  A
N2821      C2850   1.337       .  A
N2821      N2831   1.318       .  A
H2822      C2847   1.079       .  S
N2823      N2844   1.333   1_556  A
N2824      N2842   1.329       .  A
N2824      N2829   1.331       .  A
C2825      N2829   1.338       .  A
C2825      C2853   1.474       .  S
C2825      C3022   1.476       .  S
N2826      C2841   1.313       .  A
N2826     Co2848   1.971       .  S
C2827      N2855   1.345       .  A
C2827      C2830   1.469       .  S
C2827      H2861   1.080       .  S
C2830      N2851   1.328   1_556  A
N2831      N2837   1.324       .  A
N2832      C2858   1.348       .  A
N2832      N2834   1.325   1_554  A
N2832     Co2848   2.131       .  S
N2833      C2847   1.346       .  A
N2834      N2862   1.337       .  A
N2834     Co2852   2.137   1_556  S
H2835      C2858   1.082       .  S
H2836      C2853   1.081       .  S
N2838     Co2852   2.099       .  S
N2839      N2851   1.310       .  A
N2839      N2855   1.310   1_554  A
N2839     Co2848   1.985       .  S
C2840      N2844   1.359   1_556  A
C2840      C2854   1.449       .  S
C2840      C2952   1.481   1_556  S
C2841      C2860   1.414       .  S
C2841      H2845   1.083       .  S
N2842      C2853   1.345       .  A
N2842     Co2852   2.135   1_556  S
C2846      N2862   1.367       .  A
C2846      C2858   1.459   1_556  S
C2846      C2899   1.506       .  S
Co2848    Cl2859   2.380   1_554  S
N2849      C2860   1.372       .  A
C2850      C3178   1.485       .  S
Co2852    Cl2859   2.501   1_554  S
C2863      N2881   1.334       .  A
C2863      C2900   1.470       .  S
N2864      N2881   1.325       .  A
N2864      N2886   1.319       .  A
C2865      N2890   1.353       .  A
C2865      C2903   1.489       .  S
H2866      C2907   1.082       .  S
C2867      N2891   1.344       .  A
C2867      C2871   1.468   1_655  S
C2867      H2896   1.081       .  S
Co2868     N2886   2.093   1_556  S
Co2868     N2908   2.106       .  S
Co2868     N2884   2.072       .  S
Co2868    Cl2912   2.487       .  S
N2869      C2907   1.346       .  A
N2869      N2876   1.313       .  A
N2869     Co2870   2.074       .  S
Co2870     N2873   2.094       .  S
N2872      N2902   1.339       .  A
N2872     Co2905   2.155       .  S
N2873      N2909   1.320       .  A
N2874      C2903   1.346       .  A
N2874      N2884   1.321       .  A
H2875      C2900   1.081       .  S
N2876      N2897   1.336   1_556  A
N2877      N2895   1.324       .  A
N2877      N2882   1.321       .  A
C2878      N2882   1.333       .  A
C2878      C2906   1.475       .  S
C2878      C3019   1.473       .  S
N2879     Co2901   1.971       .  S
C2880      N2908   1.346       .  A
C2880      C2883   1.468       .  S
C2880      H2914   1.081       .  S
C2883      N2904   1.327   1_556  A
N2884      N2890   1.317       .  A
N2885      C2911   1.350       .  A
N2885      N2887   1.323       .  A
N2885     Co2901   2.134       .  S
N2886      C2900   1.349       .  A
N2887      N2915   1.336   1_554  A
H2888      C2911   1.081       .  S
H2889      C2906   1.081       .  S
N2891     Co2905   2.119       .  S
N2892      N2904   1.310       .  A
N2892      N2908   1.309   1_554  A
C2893      N2897   1.366   1_556  A
C2893      C2907   1.452       .  S
C2894      C2913   1.406       .  S
N2895      C2906   1.349       .  A
N2895     Co2905   2.128   1_556  S
C2899      N2915   1.365       .  A
C2899      C2911   1.463   1_556  S
N2902      C2913   1.377       .  A
C2903      C3128   1.462       .  S
C2916      N2934   1.344       .  A
C2916      C2953   1.456       .  S
N2917      N2934   1.327       .  A
N2917      N2939   1.316       .  A
C2918      N2943   1.358       .  A
C2918      C2956   1.479       .  S
C2918      H2963   1.081       .  S
H2919      C2960   1.081       .  S
C2920      N2944   1.344       .  A
C2920      C2924   1.466       .  S
C2920      H2949   1.082       .  S
Co2921     N2939   2.071   1_556  S
Co2921     N2929   2.095       .  S
Co2921     N2961   2.096       .  S
Co2921     N2937   2.055       .  S
N2922      C2960   1.340       .  A
N2922      N2929   1.312       .  A
N2922     Co2923   2.062       .  S
Co2923     N2943   2.132       .  S
C2924      N2962   1.342   1_554  A
N2925      N2932   1.311       .  A
N2925      N2955   1.338       .  A
N2925     Co2958   2.144       .  S
N2926      N2944   1.328   1_556  A
N2926      N2962   1.320       .  A
N2927      C2956   1.338       .  A
N2927      N2937   1.315       .  A
H2928      C2953   1.078       .  S
N2929      N2950   1.328   1_556  A
N2930      N2948   1.323       .  A
N2930      N2935   1.319       .  A
C2931      N2935   1.332       .  A
C2931      C2959   1.473       .  S
C2931      C3125   1.470       .  S
N2932      C2947   1.316       .  A
N2932     Co2954   1.988       .  S
C2933      N2961   1.346       .  A
C2933      C2936   1.467   1_655  S
C2933      H2967   1.080       .  S
N2937      N2943   1.320       .  A
N2938      C2964   1.348       .  A
N2938      N2940   1.323       .  A
N2938     Co2954   2.132       .  S
N2939      C2953   1.341       .  A
N2940      N2968   1.328   1_554  A
N2940     Co2958   2.089       .  S
H2941      C2964   1.082       .  S
H2942      C2959   1.081       .  S
N2944     Co2958   2.103       .  S
N2945      N2961   1.312   1_554  A
C2946      N2950   1.357   1_556  A
C2946      C2960   1.447       .  S
C2947      C2966   1.416       .  S
C2947      H2951   1.083       .  S
N2948      C2959   1.350       .  A
N2948     Co2958   2.126   1_556  S
C2952      N2968   1.356   1_554  A
C2952      C2964   1.457       .  S
Co2954    Cl2965   2.362   1_554  S
N2955      C2966   1.368       .  A
C2956      C3072   1.473       .  S
Co2958    Cl2965   2.502   1_554  S
C2969      N2987   1.313       .  A
C2969      C3006   1.488       .  S
N2970      N2987   1.304       .  A
N2970      N2992   1.308       .  A
N2970     Co3007   1.985       .  S
C2971      N2996   1.348       .  A
C2971      C3009   1.444       .  S
C2971      H3016   1.081       .  S
H2972      C3013   1.080       .  S
C2973      N2997   1.351       .  A
C2973      H3002   1.081   1_655  S
Co2974     N2992   2.126       .  S
Co2974     N3014   2.124       .  S
Co2974     N2990   2.105       .  S
Co2974    Cl3018   2.485       .  S
N2975      C3013   1.327   1_545  A
N2975      N2982   1.333       .  A
Co2976     N2979   2.089       .  S
Co2976     N2996   2.040       .  S
Co2976     N2983   2.133       .  S
Co2976    Cl3018   2.428       .  S
C2977      N3015   1.349       .  A
N2978      N2985   1.319       .  A
N2978      N3008   1.331       .  A
N2978     Co3011   2.115       .  S
N2979      N2997   1.311       .  A
N2980      C3009   1.353       .  A
N2980      N2990   1.324       .  A
N2982      N3003   1.325   1_545  A
N2983      N3001   1.325       .  A
N2983      N2988   1.337       .  A
C2984      N2988   1.363       .  A
C2984      C3012   1.454       .  S
C2984      C3327   1.486       .  S
N2985      C3000   1.339       .  A
N2985     Co3007   2.071       .  S
C2986      N3014   1.354       .  A
C2986      C2989   1.480       .  S
C2986      H3020   1.082       .  S
C2989      N3010   1.355       .  A
C2989      C3095   1.507       .  S
N2990      N2996   1.325       .  A
N2991      C3017   1.319       .  A
N2991      N2993   1.311       .  A
N2991     Co3007   1.967       .  S
N2992      C3006   1.365       .  A
N2993      N3021   1.324       .  A
N2993     Co3011   2.095       .  S
H2994      C3017   1.081       .  S
H2995      C3012   1.080       .  S
N2997     Co3011   2.091       .  S
N2998      N3010   1.333       .  A
N2998      N3014   1.327       .  A
N2998     Co3007   2.153       .  S
C2999      N3003   1.355       .  A
C2999      C3013   1.432       .  S
C2999      C3058   1.441       .  S
C3000      C3019   1.434       .  S
C3000      H3004   1.076       .  S
N3001      C3012   1.337       .  A
N3001     Co3011   2.100       .  S
C3005      N3021   1.353       .  A
C3005      C3017   1.421       .  S
C3005      C3052   1.425       .  S
Co3007    Cl3018   2.395       .  S
N3008      C3019   1.360       .  A
Co3011    Cl3018   2.463       .  S
C3022      N3040   1.312       .  A
C3022      C3059   1.499       .  S
N3023      N3040   1.305       .  A
N3023      N3045   1.307       .  A
N3023     Co3060   1.999       .  S
C3024      N3049   1.342       .  A
C3024      C3062   1.447       .  S
C3024      H3069   1.082       .  S
H3025      C3066   1.079       .  S
C3026      N3050   1.356       .  A
C3026      C3030   1.476       .  S
C3026      H3055   1.081   1_655  S
Co3027     N3045   2.152       .  S
Co3027     N3035   2.088       .  S
Co3027     N3067   2.063       .  S
Co3027     N3043   2.133       .  S
Co3027    Cl3071   2.490       .  S
N3028      C3066   1.330       .  A
N3028      N3035   1.329       .  A
N3028     Co3029   2.060       .  S
Co3029     N3032   2.099       .  S
Co3029     N3049   2.053       .  S
Co3029     N3036   2.123       .  S
Co3029    Cl3071   2.415       .  S
C3030      N3068   1.351       .  A
N3031      N3038   1.317       .  A
N3031      N3061   1.334       .  A
N3031     Co3064   2.084       .  S
N3032      N3050   1.312       .  A
N3032      N3068   1.333       .  A
N3033      C3062   1.359       .  A
N3033      N3043   1.333       .  A
H3034      C3059   1.082       .  S
N3035      N3056   1.317       .  A
N3036      N3054   1.317       .  A
N3036      N3041   1.331       .  A
C3037      N3041   1.368       .  A
C3037      C3065   1.459       .  S
C3037      C3355   1.460       .  S
N3038      C3053   1.335       .  A
N3038     Co3060   2.095       .  S
C3039      N3067   1.341       .  A
C3039      C3042   1.457       .  S
C3039      H3073   1.082       .  S
C3042      N3063   1.359       .  A
C3042      C3136   1.485       .  S
N3043      N3049   1.324       .  A
N3044      C3070   1.330       .  A
N3044      N3046   1.313       .  A
N3044     Co3060   1.988       .  S
N3045      C3059   1.365       .  A
N3046      N3074   1.323       .  A
N3046     Co3064   2.119       .  S
H3047      C3070   1.081       .  S
H3048      C3065   1.079       .  S
N3050     Co3064   2.112       .  S
N3051      N3063   1.333       .  A
N3051      N3067   1.325       .  A
N3051     Co3060   2.167       .  S
C3052      N3056   1.349       .  A
C3052      C3066   1.430       .  S
C3053      C3072   1.445       .  S
C3053      H3057   1.079       .  S
N3054      C3065   1.340       .  A
N3054     Co3064   2.082       .  S
C3058      N3074   1.354       .  A
C3058      C3070   1.433       .  S
Co3060    Cl3071   2.387       .  S
N3061      C3072   1.353       .  A
C3062      C3274   1.490       .  S
Co3064    Cl3071   2.464       .  S
C3075      N3093   1.308       .  A
C3075      C3112   1.498       .  S
N3076      N3093   1.298       .  A
N3076      N3098   1.307       .  A
N3076     Co3113   1.965       .  S
C3077      N3102   1.340       .  A
C3077      C3115   1.444       .  S
C3077      H3122   1.082       .  S
H3078      C3119   1.081       .  S
C3079      N3103   1.365       .  A
C3079      C3083   1.494       .  S
C3079      H3108   1.082       .  S
Co3080     N3098   2.141       .  S
Co3080     N3088   2.093       .  S
Co3080     N3120   2.135       .  S
Co3080     N3096   2.125       .  S
Co3080    Cl3124   2.499       .  S
N3081      C3119   1.333       .  A
N3081      N3088   1.328       .  A
N3081     Co3082   2.095       .  S
Co3082     N3085   2.048       .  S
Co3082     N3102   2.026       .  S
Co3082     N3089   2.160       .  S
Co3082    Cl3124   2.394       .  S
C3083      N3121   1.337       .  A
N3084      N3091   1.319       .  A
N3084      N3114   1.327       .  A
N3084     Co3117   2.076       .  S
N3085      N3103   1.313       .  A
N3085      N3121   1.324       .  A
N3086      C3115   1.363       .  A
N3086      N3096   1.330       .  A
H3087      C3112   1.081       .  S
N3088      N3109   1.323       .  A
N3089      N3107   1.316       .  A
N3089      N3094   1.335       .  A
C3090      N3094   1.377       .  A
C3090      C3118   1.440       .  S
C3090      C3302   1.459       .  S
N3091      C3106   1.342       .  A
N3091     Co3113   2.106       .  S
C3092      N3120   1.357       .  A
C3092      C3095   1.480       .  S
C3092      H3126   1.081       .  S
C3095      N3116   1.351       .  A
N3096      N3102   1.323       .  A
N3097      C3123   1.323       .  A
N3097      N3099   1.308       .  A
N3097     Co3113   1.967       .  S
N3098      C3112   1.362       .  A
N3099      N3127   1.325       .  A
N3099     Co3117   2.125       .  S
H3100      C3123   1.078       .  S
H3101      C3118   1.081       .  S
N3103     Co3117   2.150       .  S
N3104      N3116   1.332       .  A
N3104      N3120   1.325       .  A
N3104     Co3113   2.135       .  S
C3105      N3109   1.351       .  A
C3105      C3119   1.449       .  S
C3105      C3158   1.445       .  S
C3106      C3125   1.439       .  S
C3106      H3110   1.076       .  S
N3107      C3118   1.331       .  A
N3107     Co3117   2.042       .  S
C3111      N3127   1.358       .  A
C3111      C3123   1.425       .  S
C3111      C3164   1.427       .  S
Co3113    Cl3124   2.390       .  S
N3114      C3125   1.354       .  A
C3115      C3249   1.456       .  S
Co3117    Cl3124   2.481       .  S
C3128      N3146   1.316       .  A
C3128      C3165   1.487       .  S
N3129      N3146   1.304       .  A
N3129      N3151   1.311       .  A
N3129     Co3166   1.986       .  S
C3130      N3155   1.338       .  A
C3130      C3168   1.444       .  S
C3130      H3175   1.082       .  S
H3131      C3172   1.081       .  S
C3132      N3156   1.347       .  A
C3132      C3136   1.459       .  S
C3132      H3161   1.081       .  S
Co3133     N3151   2.137       .  S
Co3133     N3141   2.093       .  S
Co3133     N3173   2.095       .  S
Co3133     N3149   2.116       .  S
Co3133    Cl3177   2.490       .  S
N3134      C3172   1.336       .  A
N3134      N3141   1.330       .  A
N3134     Co3135   2.102       .  S
Co3135     N3138   2.110       .  S
Co3135     N3155   2.057       .  S
Co3135     N3142   2.149       .  S
Co3135    Cl3177   2.415       .  S
C3136      N3174   1.355       .  A
N3137      N3144   1.318       .  A
N3137      N3167   1.335       .  A
N3137     Co3170   2.086       .  S
N3138      N3156   1.312       .  A
N3138      N3174   1.330       .  A
N3139      C3168   1.356       .  A
N3139      N3149   1.330       .  A
H3140      C3165   1.082       .  S
N3141      N3162   1.322       .  A
N3142      N3160   1.321       .  A
N3142      N3147   1.340       .  A
C3143      N3147   1.368       .  A
C3143      C3171   1.439       .  S
N3144      C3159   1.342       .  A
N3144     Co3166   2.105       .  S
C3145      N3173   1.350       .  A
C3145      H3179   1.082       .  S
C3148      N3169   1.350       .  A
N3149      N3155   1.323       .  A
N3150      C3176   1.324       .  A
N3150      N3152   1.309       .  A
N3151      C3165   1.362       .  A
N3152      N3180   1.325       .  A
H3153      C3176   1.078       .  S
N3156     Co3170   2.067       .  S
N3157      N3173   1.324       .  A
N3157     Co3166   2.149       .  S
C3158      N3162   1.348       .  A
C3158      C3172   1.453       .  S
C3159      C3178   1.450       .  S
C3159      H3163   1.077       .  S
N3160      C3171   1.329       .  A
N3160     Co3170   2.061       .  S
C3164      N3180   1.355       .  A
C3164      C3176   1.424       .  S
Co3166    Cl3177   2.396       .  S
N3167      C3178   1.352       .  A
C3168      C3380   1.474       .  S
Co3170    Cl3177   2.467       .  S
C3181      N3199   1.361       .  A
C3181      C3218   1.439       .  S
N3182      N3199   1.333       .  A
N3182      N3204   1.319       .  A
C3183      N3208   1.337       .  A
C3183      C3221   1.446       .  S
C3183      H3228   1.076       .  S
H3184      C3225   1.074       .  S
C3185      N3209   1.350       .  A
C3185      C3189   1.472       .  S
C3185      H3214   1.081       .  S
Co3186     N3204   2.047       .  S
Co3186     N3194   2.132       .  S
Co3186     N3202   2.079       .  S
Co3186    Cl3230   2.469       .  S
N3187      C3225   1.323       .  A
N3187      N3194   1.311       .  A
N3187     Co3188   1.983       .  S
Co3188     N3191   2.143       .  S
Co3188     N3208   2.093       .  S
Co3188    Cl3230   2.390       .  S
C3189      N3227   1.350       .  A
C3189      C3307   1.495       .  S
N3190      N3197   1.322       .  A
N3190      N3220   1.330       .  A
N3190     Co3223   2.132       .  S
N3191      N3209   1.323       .  A
N3191      N3227   1.331       .  A
N3192      C3221   1.352       .  A
N3192      N3202   1.335       .  A
H3193      C3218   1.082       .  S
N3194      N3215   1.330       .  A
N3195      N3213   1.311   1_545  A
N3195      N3200   1.302       .  A
C3196      N3200   1.314   1_565  A
C3196      C3224   1.490       .  S
N3197      C3212   1.334       .  A
N3197     Co3219   2.029       .  S
C3198      N3226   1.347       .  A
C3198      C3201   1.467       .  S
C3198      H3232   1.082       .  S
C3201      N3222   1.341       .  A
C3201      C3360   1.460       .  S
N3202      N3208   1.315       .  A
N3203      C3229   1.335       .  A
N3203      N3205   1.326       .  A
N3203     Co3219   2.092       .  S
N3204      C3218   1.329       .  A
N3205      N3233   1.324       .  A
N3205     Co3223   2.092       .  S
H3206      C3229   1.081       .  S
H3207      C3224   1.081       .  S
N3210      N3222   1.322       .  A
N3210      N3226   1.312       .  A
N3210     Co3219   2.062       .  S
C3211      N3215   1.364       .  A
C3211      C3225   1.422       .  S
C3211      C3264   1.437       .  S
C3212      C3231   1.435       .  S
C3212      H3216   1.082       .  S
N3213      C3224   1.359       .  A
N3213     Co3223   2.138       .  S
C3217      N3233   1.351       .  A
C3217      C3229   1.448       .  S
C3217      C3270   1.447       .  S
N3220      C3231   1.360       .  A
C3234      N3252   1.370       .  A
C3234      C3271   1.438       .  S
N3235      N3252   1.339       .  A
N3235      N3257   1.320       .  A
N3235     Co3272   2.149       .  S
C3236      N3261   1.350       .  A
C3236      C3274   1.448       .  S
C3236      H3281   1.075       .  S
H3237      C3278   1.078       .  S
C3238      N3262   1.360       .  A
C3238      C3242   1.487       .  S
C3238      H3267   1.081       .  S
Co3239     N3257   2.052       .  S
Co3239     N3247   2.134       .  S
Co3239     N3279   2.124       .  S
Co3239     N3255   2.087       .  S
Co3239    Cl3283   2.469       .  S
N3240      C3278   1.325       .  A
N3240      N3247   1.308       .  A
N3240     Co3241   1.975       .  S
Co3241     N3244   2.138       .  S
Co3241     N3261   2.117       .  S
Co3241     N3248   1.967       .  S
Co3241    Cl3283   2.420       .  S
C3242      N3280   1.351       .  A
C3242      C3295   1.516       .  S
N3243      N3250   1.326       .  A
N3243      N3273   1.327       .  A
N3243     Co3276   2.131       .  S
N3244      N3262   1.325       .  A
N3244      N3280   1.333       .  A
N3245      C3274   1.354       .  A
N3245      N3255   1.330       .  A
H3246      C3271   1.082       .  S
N3247      N3268   1.329       .  A
N3248      N3266   1.308       .  A
N3248      N3253   1.301       .  A
C3249      N3253   1.311       .  A
C3249      C3277   1.498       .  S
N3250      C3265   1.343       .  A
N3250     Co3272   2.040       .  S
C3251      N3279   1.356       .  A
C3251      C3254   1.482       .  S
C3251      H3285   1.082       .  S
C3254      N3275   1.342       .  A
C3254      C3348   1.495       .  S
N3255      N3261   1.318       .  A
N3256      C3282   1.333       .  A
N3256      N3258   1.330       .  A
N3256     Co3272   2.093       .  S
N3257      C3271   1.327       .  A
N3258      N3286   1.324       .  A
N3258     Co3276   2.106       .  S
H3259      C3282   1.081       .  S
H3260      C3277   1.081       .  S
N3262     Co3276   2.152       .  S
N3263      N3275   1.327       .  A
N3263      N3279   1.313       .  A
N3263     Co3272   2.064       .  S
C3264      N3268   1.364       .  A
C3264      C3278   1.424       .  S
C3265      C3284   1.443       .  S
C3265      H3269   1.081       .  S
N3266      C3277   1.362       .  A
N3266     Co3276   2.147       .  S
C3270      N3286   1.353       .  A
C3270      C3282   1.447       .  S
Co3272    Cl3283   2.421       .  S
N3273      C3284   1.361       .  A
Co3276    Cl3283   2.478       .  S
C3287      N3305   1.376       .  A
C3287      C3324   1.449       .  S
N3288      N3305   1.338       .  A
N3288      N3310   1.318       .  A
N3288     Co3325   2.156       .  S
C3289      N3314   1.340       .  A
C3289      C3327   1.447       .  S
C3289      H3334   1.077       .  S
H3290      C3331   1.075       .  S
C3291      N3315   1.361       .  A
C3291      C3295   1.490       .  S
C3291      H3320   1.081       .  S
Co3292     N3310   2.075       .  S
Co3292     N3300   2.105       .  S
Co3292     N3332   2.103       .  S
Co3292     N3308   2.099       .  S
Co3292    Cl3336   2.478       .  S
N3293      C3331   1.322       .  A
N3293     Co3294   1.965       .  S
Co3294     N3297   2.141       .  S
Co3294     N3301   1.969       .  S
C3295      N3333   1.349       .  A
N3296      N3303   1.323       .  A
N3296      N3326   1.327       .  A
N3296     Co3329   2.123       .  S
N3297      N3315   1.327       .  A
N3297      N3333   1.332       .  A
N3298      C3327   1.358       .  A
N3298      N3308   1.336       .  A
H3299      C3324   1.079       .  S
N3300      N3321   1.325       .  A
N3301      N3319   1.314       .  A
N3301      N3306   1.306       .  A
C3302      N3306   1.314       .  A
C3302      C3330   1.483       .  S
N3303      C3318   1.346       .  A
C3304      N3332   1.354       .  A
C3304      C3307   1.476       .  S
C3304      H3338   1.082       .  S
C3307      N3328   1.347       .  A
N3308      N3314   1.320       .  A
N3309      C3335   1.335       .  A
N3309     Co3325   2.102       .  S
N3310      C3324   1.335       .  A
N3311      N3339   1.325       .  A
N3311     Co3329   2.123       .  S
H3312      C3335   1.082       .  S
H3313      C3330   1.081       .  S
N3315     Co3329   2.150       .  S
N3316      N3328   1.329       .  A
N3316      N3332   1.311       .  A
N3316     Co3325   2.079       .  S
C3317      N3321   1.357       .  A
C3318      C3337   1.443       .  S
C3318      H3322   1.081       .  S
N3319      C3330   1.362       .  A
N3319     Co3329   2.136       .  S
C3323      N3339   1.354       .  A
Co3325    Cl3336   2.411       .  S
N3326      C3337   1.362       .  A
C3340      N3358   1.371       .  A
C3340      C3377   1.438       .  S
N3341      N3358   1.341       .  A
N3341      N3363   1.321       .  A
N3341     Co3378   2.164       .  S
C3342      N3367   1.345       .  A
C3342      C3380   1.445       .  S
C3342      H3387   1.077       .  S
H3343      C3384   1.077       .  S
C3344      N3368   1.355       .  A
C3344      C3348   1.482       .  S
C3344      H3373   1.081       .  S
Co3345     N3363   2.055       .  S
Co3345     N3353   2.096       .  S
Co3345     N3385   2.080       .  S
Co3345     N3361   2.083       .  S
N3346      C3384   1.324   1_455  A
N3346     Co3347   1.993   1_455  S
Co3347     N3350   2.122       .  S
Co3347     N3354   1.982       .  S
Co3347    Cl3389   2.400   1_655  S
C3348      N3386   1.343       .  A
N3349      N3356   1.325       .  A
N3349      N3379   1.327       .  A
N3349     Co3382   2.130       .  S
N3350      N3368   1.325       .  A
N3350      N3386   1.328       .  A
N3351      C3380   1.351       .  A
N3351      N3361   1.328       .  A
H3352      C3377   1.082       .  S
N3353      N3374   1.325       .  A
N3354      N3372   1.310       .  A
N3354      N3359   1.303       .  A
C3355      N3359   1.317       .  A
C3355      C3383   1.488       .  S
N3356      C3371   1.345       .  A
C3357      N3385   1.348       .  A
C3357      C3360   1.469       .  S
C3357      H3391   1.082       .  S
C3360      N3381   1.338       .  A
N3361      N3367   1.316       .  A
N3362      C3388   1.337       .  A
N3362     Co3378   2.108       .  S
N3363      C3377   1.331       .  A
N3364      N3392   1.324       .  A
N3364     Co3382   2.100       .  S
H3365      C3388   1.081       .  S
H3366      C3383   1.081       .  S
N3368     Co3382   2.128       .  S
N3369      N3381   1.320       .  A
N3369      N3385   1.312       .  A
N3369     Co3378   2.054       .  S
C3370      N3374   1.356       .  A
C3371      C3390   1.445       .  S
C3371      H3375   1.082   1_655  S
N3372      C3383   1.360       .  A
N3372     Co3382   2.134       .  S
C3376      N3392   1.352   1_455  A
N3379      C3390   1.361       .  A
Co3382    Cl3389   2.480   1_655  S
