geometry optimzed in LAMMPS
_audit_creation_date              2020-11-30 
_audit_creation_method            'lammps2cif' 
_symmetry_space_group_name_H-M    'P1' 
_symmetry_Int_Tables_number       1 
_symmetry_cell_setting            triclinic 
loop_ 
_symmetry_equiv_pos_as_xyz 
  x,y,z 
_cell_length_a                    27.846365397788436 
_cell_length_b                    27.7744971249775 
_cell_length_c                    89.52776107424648 
_cell_angle_alpha                 90.173683523322 
_cell_angle_beta                  89.58516764177195 
_cell_angle_gamma                 90.35292001133242 
loop_ 
_atom_site_label 
_atom_site_type_symbol 
_atom_site_fract_x 
_atom_site_fract_y 
_atom_site_fract_z 
_atom_site_charge 
N1          N  0.82941274  0.05366156  0.81205222    -0.25350
N2          N  0.81329424  0.01809060  0.82050044    -0.33210
C3          C  0.84983171  0.99989732  0.82834423     0.02990
C4          C  0.89114982  0.02554360  0.82485890     0.09020
C5          C  0.87675037  0.05972895  0.81458089    -0.04080
H6          H  0.84546676  0.97405417  0.83726956     0.09680
H7          H  0.89829751  0.08891240  0.81009328     0.10880
Cu8        Cu  0.74107940  0.00567795  0.82449093     0.44170
Cu9        Cu  0.78344522  0.09398012  0.79884113     0.41990
Cu10       Cu  0.65399088  0.08270313  0.80799948     0.43880
N11         N  0.67121960  0.01135904  0.83225913    -0.32730
N12         N  0.63892776  0.04066208  0.82660241    -0.26990
C13         C  0.59973395  0.04065880  0.83555156    -0.03090
C14         C  0.60826615  0.00990994  0.84741216     0.09130
C15         C  0.65378239  0.99213306  0.84491871     0.02920
H16         H  0.56896303  0.06368821  0.83406056     0.10570
H17         H  0.67413213  0.96951600  0.85234052     0.09650
N18         N  0.68161633  0.11605615  0.78903452    -0.34180
N19         N  0.72793257  0.12023760  0.78573969    -0.26360
C20         C  0.73260219  0.13992291  0.77207715    -0.01600
C21         C  0.68725246  0.14851900  0.76662694     0.07010
C22         C  0.65578214  0.13300851  0.77757511     0.05100
H23         H  0.76642166  0.14557592  0.76630694     0.10210
H24         H  0.61697767  0.13214787  0.77701558     0.09040
N25         N  0.17276246  0.94552178  0.81468345    -0.25350
N26         N  0.18927350  0.95108256  0.82839718    -0.33210
C27         C  0.15291971  0.96282041  0.83755442     0.02990
C28         C  0.11133297  0.96532588  0.82928358     0.09020
C29         C  0.12511206  0.95459003  0.81475265    -0.04080
H30         H  0.15661848  0.96957462  0.84939576     0.09680
H31         H  0.10216034  0.95223848  0.80508324     0.10880
Cu32       Cu  0.26040518  0.94504817  0.83456492     0.44170
Cu33       Cu  0.21696231  0.92273324  0.79718042     0.41990
Cu34       Cu  0.34533982  0.90904031  0.80763081     0.43880
N35         N  0.33323204  0.94358887  0.83887714    -0.32730
N36         N  0.36539542  0.92989265  0.82887201    -0.26990
C37         C  0.40957408  0.93408485  0.83478416    -0.03090
C38         C  0.40485837  0.95183760  0.84917742     0.09130
C39         C  0.35581473  0.95724762  0.85140046     0.02920
H40         H  0.44267414  0.92603985  0.82891669     0.10570
H41         H  0.33760346  0.97033829  0.86129691     0.09650
N42         N  0.31629635  0.89053955  0.78719785    -0.34260
N43         N  0.27077393  0.89537785  0.78327302    -0.26360
C44         C  0.26574272  0.87948369  0.76912739    -0.01600
C45         C  0.31008628  0.86410326  0.76409792     0.07010
C46         C  0.34120791  0.87163005  0.77573274     0.05100
H47         H  0.23242444  0.87938639  0.76298763     0.10210
H48         H  0.37929805  0.86423057  0.77586483     0.09040
C49         C  0.97155598  0.99300939  0.85636349     0.02510
C50         C  0.01667362  0.97756398  0.85951410     0.02500
N51         N  0.42782364  0.66467839  0.67644739    -0.25350
N52         N  0.42048582  0.67721689  0.66245498    -0.33210
C53         C  0.43006510  0.64007218  0.65342473     0.02990
C54         C  0.44474436  0.60177757  0.66202805     0.09020
C55         C  0.44351062  0.61872010  0.67664495    -0.04080
H56         H  0.43101276  0.64244316  0.64136589     0.09680
H57         H  0.45494560  0.59984896  0.68653872     0.10880
Cu58       Cu  0.41179721  0.74677257  0.65556222     0.44170
Cu59       Cu  0.41686108  0.71478720  0.69347319     0.41990
Cu60       Cu  0.41230286  0.84398887  0.68038332     0.43880
N61         N  0.42757470  0.81552805  0.64885640    -0.32730
N62         N  0.42898395  0.85295468  0.65794741    -0.26990
C63         C  0.44431952  0.89181492  0.65019606    -0.03090
C64         C  0.45325543  0.87717648  0.63559160     0.09130
C65         C  0.44235597  0.82880796  0.63522756     0.02920
H66         H  0.44989646  0.92728060  0.65492461     0.10570
H67         H  0.44607045  0.80461973  0.62580465     0.09650
N68         N  0.39040868  0.81874536  0.70118292    -0.34180
N69         N  0.39221756  0.77351542  0.70588224    -0.26360
C70         C  0.37307978  0.77120244  0.71971840    -0.01600
C71         C  0.35862994  0.81682154  0.72378470     0.07010
C72         C  0.37017968  0.84607914  0.71189780     0.05100
H73         H  0.36967475  0.73865086  0.72625448     0.10210
H74         H  0.36416528  0.88440279  0.71103154     0.09040
N75         N  0.55768502  0.32455707  0.67651614    -0.25350
N76         N  0.52921000  0.30819952  0.66585590    -0.33210
C77         C  0.51422586  0.34556495  0.65764032     0.02990
C78         C  0.53471057  0.38733072  0.66326877     0.09020
C79         C  0.56235388  0.37259251  0.67513828    -0.04080
H80         H  0.49434674  0.34199007  0.64735703     0.09680
H81         H  0.58654373  0.39466677  0.68167432     0.10880
Cu82       Cu  0.52148192  0.23571703  0.66040625     0.44170
Cu83       Cu  0.59292347  0.28069715  0.69151620     0.41990
Cu84       Cu  0.59562569  0.15522863  0.68159095     0.43880
N85         N  0.53194945  0.16383557  0.65470110    -0.32730
N86         N  0.56084058  0.13518461  0.66217953    -0.26990
C87         C  0.56359261  0.09251766  0.65511126    -0.03090
C88         C  0.53459427  0.09400521  0.64268800     0.09130
C89         C  0.51517470  0.13988971  0.64270159     0.02920
H90         H  0.58569724  0.06283440  0.65864031     0.10570
H91         H  0.49244171  0.15552419  0.63427711     0.09650
N92         N  0.62154756  0.18189121  0.70160087    -0.34180
N93         N  0.62050334  0.22800288  0.70530210    -0.26360
C94         C  0.63675675  0.23319363  0.71933958    -0.01600
C95         C  0.64855610  0.18818273  0.72461252     0.07010
C96         C  0.63847047  0.15645067  0.71316227     0.05100
H97         H  0.63833056  0.26692680  0.72538504     0.10210
H98         H  0.64162143  0.11765796  0.71337095     0.09040
C99         C  0.48909473  0.52221496  0.63146049     0.02510
C100        C  0.51390493  0.48093634  0.63370269     0.02500
N101        N  0.82432412  0.43756505  0.42440568    -0.25350
N102        N  0.80780234  0.46864234  0.41456287    -0.33210
C103        C  0.84469886  0.48574614  0.40638626     0.02990
C104        C  0.88643421  0.46378950  0.41105103     0.09020
C105        C  0.87208133  0.43301637  0.42238327    -0.04080
H106        H  0.84056926  0.50826146  0.39667064     0.09680
H107        H  0.89417115  0.40711581  0.42810405     0.10880
Cu108      Cu  0.73563918  0.47656586  0.40945222     0.44170
Cu109      Cu  0.78025574  0.40034981  0.43926916     0.41990
Cu110      Cu  0.65281702  0.40530574  0.43055885     0.43880
N111        N  0.66468168  0.46625284  0.40308869    -0.32730
N112        N  0.63435061  0.43910904  0.41079955    -0.26990
C113        C  0.59247274  0.43633125  0.40344552    -0.03090
C114        C  0.59655684  0.46288795  0.39044428     0.09130
C115        C  0.64292349  0.48146805  0.39057880     0.02920
H116        H  0.56153825  0.41572202  0.40715668     0.10570
H117        H  0.66013271  0.50322155  0.38207811     0.09650
N118        N  0.68008760  0.37578879  0.44996067    -0.34180
N119        N  0.72635286  0.37376777  0.45317992    -0.26360
C120        C  0.73131810  0.35496406  0.46692661    -0.01600
C121        C  0.68606202  0.34458001  0.47247321     0.07010
C122        C  0.65445102  0.35827353  0.46152756     0.05100
H123        H  0.76518667  0.35067497  0.47260935     0.10210
H124        H  0.61564905  0.35707207  0.46209449     0.09040
N125        N  0.16649547  0.55815712  0.42624922    -0.25350
N126        N  0.18228181  0.56301542  0.41240692    -0.33210
C127        C  0.14646566  0.55434427  0.40290920     0.02990
C128        C  0.10569082  0.54308444  0.41106755     0.09020
C129        C  0.11963427  0.54517308  0.42591042    -0.04080
H130        H  0.15049609  0.55407279  0.39088827     0.09680
H131        H  0.09756237  0.53794180  0.43564989     0.10880
Cu132      Cu  0.25283908  0.57435580  0.40663159     0.44170
Cu133      Cu  0.21281832  0.57210596  0.44384935     0.41990
Cu134      Cu  0.34493863  0.57898136  0.43293016     0.43880
N135        N  0.32399792  0.56944276  0.40075216    -0.32730
N136        N  0.35962970  0.56794750  0.41036892    -0.26990
C137        C  0.40123020  0.56134121  0.40274051    -0.03090
C138        C  0.39034816  0.55931527  0.38762938     0.09130
C139        C  0.34131717  0.56462379  0.38687772     0.02920
H140        H  0.43639386  0.55936224  0.40773648     0.10570
H141        H  0.31953654  0.56418286  0.37691589     0.09650
N142        N  0.31450664  0.60176696  0.45307163    -0.34180
N143        N  0.26838955  0.59938519  0.45689153    -0.26360
C144        C  0.26248222  0.62013947  0.47037727    -0.01600
C145        C  0.30663445  0.63631968  0.47516654     0.07010
C146        C  0.33881514  0.62407182  0.46405478     0.05100
H147        H  0.22844655  0.62347930  0.47618231     0.10210
H148        H  0.37706130  0.63113984  0.46387801     0.09040
C149        C  0.97817910  0.49733086  0.38174726     0.02510
C150        C  0.02006377  0.52146442  0.37964855     0.02500
N151        N  0.57228048  0.18220213  0.56916830    -0.25350
N152        N  0.57048427  0.20259854  0.58252683    -0.33210
C153        C  0.54842567  0.17274512  0.59209917     0.02990
C154        C  0.53613769  0.13128501  0.58457457     0.09020
C155        C  0.55165742  0.13811818  0.57000013    -0.04080
H156        H  0.53900207  0.18193902  0.60349585     0.09680
H157        H  0.54505126  0.11474117  0.56054181     0.10880
Cu158      Cu  0.58684478  0.27349668  0.58721170     0.44170
Cu159      Cu  0.59513592  0.22007581  0.55039349     0.41990
Cu160      Cu  0.58974307  0.35159082  0.55652401     0.43880
N161        N  0.57974926  0.34691403  0.58961787    -0.32730
N162        N  0.57668969  0.37590916  0.57802238    -0.26990
C163        C  0.56256680  0.41965336  0.58276614    -0.03090
C164        C  0.55759772  0.41813942  0.59813861     0.09130
C165        C  0.56859655  0.37141008  0.60210446     0.02920
H166        H  0.55462516  0.44962896  0.57553154     0.10570
H167        H  0.56441522  0.35529071  0.61303044     0.09650
N168        N  0.61293498  0.31871542  0.53699807    -0.34180
N169        N  0.61549746  0.27163821  0.53471951    -0.26360
C170        C  0.63341002  0.26364894  0.52092174    -0.01600
C171        C  0.64253313  0.30773569  0.51437632     0.07010
C172        C  0.62917866  0.34177505  0.52478294     0.05100
H173        H  0.63919429  0.22846450  0.51604988     0.10210
H174        H  0.63109876  0.38048922  0.52360280     0.09040
N175        N  0.44011621  0.82527616  0.56383563    -0.25350
N176        N  0.47070228  0.80780757  0.57365175    -0.33210
C177        C  0.48819220  0.84427111  0.58192647     0.02990
C178        C  0.46714122  0.88675446  0.57731004     0.09020
C179        C  0.43662734  0.87322168  0.56588858    -0.04080
H180        H  0.51115454  0.83943899  0.59147907     0.09680
H181        H  0.41188459  0.89615805  0.56001199     0.10880
Cu182      Cu  0.47969440  0.73485902  0.57810700     0.44170
Cu183      Cu  0.40201807  0.78289892  0.54873216     0.41990
Cu184      Cu  0.40162271  0.65669839  0.55782970     0.43880
N185        N  0.46906250  0.66289036  0.58374719    -0.32730
N186        N  0.43831828  0.63508417  0.57651707    -0.26990
C187        C  0.43291986  0.59333179  0.58386293    -0.03090
C188        C  0.46206513  0.59447468  0.59624231     0.09130
C189        C  0.48459260  0.63912347  0.59587859     0.02920
H190        H  0.40774087  0.56520099  0.58082191     0.10570
H191        H  0.50718721  0.65468091  0.60442297     0.09650
N192        N  0.37255254  0.68386625  0.53854611    -0.34180
N193        N  0.37280291  0.73001479  0.53495045    -0.26360
C194        C  0.35507290  0.73468125  0.52106275    -0.01600
C195        C  0.34313743  0.68924707  0.51588214     0.07010
C196        C  0.35468774  0.65797762  0.52716840     0.05100
H197        H  0.35293101  0.76823831  0.51501169     0.10210
H198        H  0.35236996  0.61908993  0.52689871     0.09040
C199        C  0.49405666  0.97643584  0.60789802     0.02510
C200        C  0.50015676  0.02495436  0.60733763     0.02500
N201        N  0.92870984  0.16365701  0.17660174    -0.25350
N202        N  0.95683910  0.18141244  0.16606513    -0.33210
C203        C  0.97591587  0.14578022  0.15801127     0.02990
C204        C  0.95905677  0.10261006  0.16359444     0.09020
C205        C  0.92846163  0.11511160  0.17532432    -0.04080
H206        H  0.99737415  0.15126756  0.14802800     0.09680
H207        H  0.90676035  0.09099965  0.18206202     0.10880
Cu208      Cu  0.96136450  0.25251125  0.16102205     0.44170
Cu209      Cu  0.89425706  0.21167073  0.19102150     0.41990
Cu210      Cu  0.90375193  0.34534097  0.17971975     0.43880
N211        N  0.95996153  0.32043452  0.15272873    -0.32730
N212        N  0.93821927  0.35704590  0.15921760    -0.26990
C213        C  0.94427421  0.39631760  0.15046031    -0.03090
C214        C  0.97113254  0.38251844  0.13798283     0.09130
C215        C  0.98006044  0.33441016  0.13987638     0.02920
H216        H  0.93040490  0.43174612  0.15296982     0.10570
H217        H  0.99973435  0.31095437  0.13239058     0.09650
N218        N  0.87987890  0.31771237  0.20025150    -0.34180
N219        N  0.87645651  0.27161179  0.20410372    -0.26360
C220        C  0.86260374  0.26892417  0.21851991    -0.01600
C221        C  0.85709419  0.31505292  0.22394600     0.07010
C222        C  0.86819227  0.34508189  0.21216485     0.05100
H223        H  0.85813291  0.23574477  0.22468668     0.10210
H224        H  0.86893467  0.38401797  0.21231488     0.09040
N225        N  0.06218536  0.82649992  0.17459898    -0.25350
N226        N  0.03414134  0.80797294  0.16417813    -0.33210
C227        C  0.01589430  0.84371280  0.15598679     0.02990
C228        C  0.03338863  0.88710070  0.16138062     0.09020
C229        C  0.06311087  0.87482861  0.17309645    -0.04080
H230        H  0.99435968  0.83814737  0.14611918     0.09680
H231        H  0.08488668  0.89904380  0.17972705     0.10880
Cu232      Cu  0.02722371  0.73520269  0.15958170     0.44170
Cu233      Cu  0.09824134  0.78388596  0.18991647     0.41990
Cu234      Cu  0.09214777  0.65387606  0.18223388     0.43880
N235        N  0.03280881  0.66260566  0.15464023    -0.32730
N236        N  0.05760470  0.63242373  0.16288645    -0.26990
C237        C  0.05775916  0.58892414  0.15622881    -0.03090
C238        C  0.03180868  0.59190173  0.14314758     0.09130
C239        C  0.01647569  0.63927392  0.14250276     0.02920
H240        H  0.07672248  0.55785605  0.16034399     0.10570
H241        H  0.99677235  0.65631147  0.13362549     0.09650
N242        N  0.12104272  0.68412535  0.20138529    -0.34180
N243        N  0.12340697  0.73090125  0.20423644    -0.26360
C244        C  0.14134158  0.73741971  0.21803476    -0.01600
C245        C  0.15066492  0.69270442  0.22401212     0.07010
C246        C  0.13742301  0.65977850  0.21324120     0.05100
H247        H  0.14573291  0.77199274  0.22346095     0.10210
H248        H  0.13810531  0.62094882  0.21411708     0.09040
C249        C  0.99625583  0.97491264  0.13188699     0.02510
C250        C  0.00111839  0.02350403  0.13288813     0.02500
N251        N  0.33307604  0.56563984  0.31245675    -0.25350
N252        N  0.31543026  0.53191291  0.32129776    -0.33210
C253        C  0.35001427  0.51523451  0.33011553     0.02990
C254        C  0.39213414  0.53962862  0.32679566     0.09020
C255        C  0.38015704  0.57146523  0.31550274    -0.04080
H256        H  0.34337842  0.49032108  0.33915109     0.09680
H257        H  0.40316756  0.59864438  0.31052862     0.10880
Cu258      Cu  0.24388093  0.51834014  0.32427911     0.44170
Cu259      Cu  0.28801915  0.60324225  0.29825985     0.41990
Cu260      Cu  0.15671336  0.59108317  0.30784091     0.43880
N261        N  0.17561083  0.52294165  0.33263077    -0.32730
N262        N  0.14227023  0.55087271  0.32695330    -0.26990
C263        C  0.10392857  0.55075961  0.33625634    -0.03090
C264        C  0.11459690  0.52156851  0.34835579     0.09130
C265        C  0.16020435  0.50480932  0.34565680     0.02920
H266        H  0.07232853  0.57267864  0.33482881     0.10570
H267        H  0.18186160  0.48340613  0.35306992     0.09650
N268        N  0.18501598  0.62283607  0.28860111    -0.34180
N269        N  0.23131518  0.62721225  0.28522306    -0.26360
C270        C  0.23568423  0.64644939  0.27149310    -0.01600
C271        C  0.19025622  0.65460679  0.26607007     0.07010
C272        C  0.15900019  0.63924621  0.27709945     0.05100
H273        H  0.26942798  0.65242181  0.26570544     0.10210
H274        H  0.12019434  0.63844086  0.27661676     0.09040
N275        N  0.66683637  0.41856159  0.31461570    -0.25350
N276        N  0.67995946  0.44329038  0.32649795    -0.33210
C277        C  0.64116736  0.45628981  0.33445321     0.02990
C278        C  0.60107554  0.43915013  0.32717358     0.09020
C279        C  0.61864546  0.41511133  0.31462809    -0.04080
H280        H  0.64229760  0.47732850  0.34461286     0.09680
H281        H  0.59786270  0.39756683  0.30600819     0.10880
Cu282      Cu  0.74985752  0.45651799  0.33131406     0.44170
Cu283      Cu  0.71769711  0.39355314  0.29936562     0.41990
Cu284      Cu  0.84710361  0.40516399  0.31060780     0.43880
N285        N  0.81857071  0.45629037  0.33863092    -0.32730
N286        N  0.85558369  0.43673519  0.33165562    -0.26990
C287        C  0.89457705  0.44176077  0.34044635    -0.03090
C288        C  0.88025627  0.46544957  0.35343942     0.09130
C289        C  0.83218448  0.47393444  0.35181629     0.02920
H290        H  0.93024891  0.42942887  0.33757800     0.10570
H291        H  0.80846352  0.49151968  0.35971775     0.09650
N292        N  0.82255890  0.38031688  0.28991161    -0.34180
N293        N  0.77679364  0.37634465  0.28603031    -0.26360
C294        C  0.77441914  0.36093485  0.27179110    -0.01600
C295        C  0.82055998  0.35492754  0.26648534     0.07010
C296        C  0.85026461  0.36745492  0.27817261     0.05100
H297        H  0.74144805  0.35529900  0.26569447     0.10210
H298        H  0.88911609  0.36797279  0.27809786     0.09040
C299        C  0.52560823  0.49781753  0.35521340     0.02510
C300        C  0.47975931  0.51199000  0.35831159     0.02500
N301        N  0.32845061  0.94060884  0.92646997    -0.25350
N302        N  0.31278158  0.97580367  0.91793794    -0.33210
C303        C  0.34995176  0.99520368  0.91040988     0.02990
C304        C  0.39125262  0.97079447  0.91420230     0.09020
C305        C  0.37618489  0.93601624  0.92431400    -0.04080
H306        H  0.34627447  0.02117532  0.90152272     0.09680
H307        H  0.39769835  0.90751203  0.92896748     0.10880
Cu308      Cu  0.24092339  0.98697349  0.91359224     0.44170
Cu309      Cu  0.28169917  0.89898949  0.93938213     0.41990
Cu310      Cu  0.15268188  0.90976785  0.93006819     0.43880
N311        N  0.17105113  0.98214090  0.90604327    -0.32730
N312        N  0.13816049  0.95288668  0.91173380    -0.26990
C313        C  0.09874341  0.95405981  0.90305955    -0.03090
C314        C  0.10775317  0.98556047  0.89135046     0.09130
C315        C  0.15381040  0.00248784  0.89363797     0.02920
H316        H  0.06736792  0.93142425  0.90462722     0.10570
H317        H  0.17452328  0.02547791  0.88625046     0.09650
N318        N  0.17918541  0.87512912  0.94882285    -0.34180
N319        N  0.22528057  0.87114016  0.95216766    -0.26360
C320        C  0.22902908  0.85057280  0.96570784    -0.01600
C321        C  0.18331373  0.84112248  0.97102792     0.07010
C322        C  0.15259667  0.85715245  0.96013141     0.05100
H323        H  0.26245841  0.84508578  0.97152560     0.10210
H324        H  0.11378325  0.85785738  0.96066835     0.09040
N325        N  0.67154710  0.05742451  0.92461094    -0.25350
N326        N  0.68901378  0.05011035  0.91103212    -0.33210
C327        C  0.65333819  0.03677809  0.90193582     0.02990
C328        C  0.61111230  0.03511095  0.91010937     0.09020
C329        C  0.62384183  0.04800652  0.92452901    -0.04080
H330        H  0.65787333  0.02863102  0.89018830     0.09680
H331        H  0.60013605  0.05173009  0.93407760     0.10880
Cu332      Cu  0.76046130  0.05664741  0.90504597     0.44170
Cu333      Cu  0.71508847  0.08305371  0.94178532     0.41990
Cu334      Cu  0.84471435  0.09763691  0.93147627     0.43880
N335        N  0.83333150  0.05845842  0.90070385    -0.32730
N336        N  0.86535818  0.07376446  0.91044060    -0.26990
C337        C  0.90962483  0.06895080  0.90444228    -0.03090
C338        C  0.90501370  0.04917557  0.89029320     0.09130
C339        C  0.85598305  0.04323520  0.88830855     0.02920
H340        H  0.94269259  0.07805200  0.91008107     0.10570
H341        H  0.83773550  0.02872096  0.87866333     0.09650
N342        N  0.81392385  0.11778046  0.95171275    -0.34180
N343        N  0.76807443  0.11248459  0.95550737    -0.26360
C344        C  0.76182838  0.12888273  0.96956251    -0.01600
C345        C  0.80563296  0.14516617  0.97471714     0.07010
C346        C  0.83780951  0.13755315  0.96321685     0.05100
H347        H  0.72807548  0.12832176  0.97561743     0.10210
H348        H  0.87598337  0.14506365  0.96325867     0.09040
C349        C  0.51789799  0.02099800  0.87972247     0.02510
C350        C  0.47239807  0.00602492  0.88302512     0.02500
N351        N  0.94174798  0.32305324  0.06468185    -0.25350
N352        N  0.97017761  0.30566483  0.07510663    -0.33210
C353        C  0.98685378  0.34223389  0.08348199     0.02990
C354        C  0.96761510  0.38474084  0.07822695     0.09020
C355        C  0.93883396  0.37117479  0.06638639    -0.04080
H356        H  0.00784082  0.33765814  0.09348683     0.09680
H357        H  0.91571625  0.39423680  0.05994761     0.10880
Cu358      Cu  0.97727911  0.23290536  0.07979531     0.44170
Cu359      Cu  0.90571407  0.27980632  0.04937102     0.41990
Cu360      Cu  0.90589651  0.15175775  0.05806319     0.43880
N361        N  0.96860582  0.16060526  0.08505427    -0.32730
N362        N  0.94109845  0.13099594  0.07727131    -0.26990
C363        C  0.93909091  0.08808455  0.08418671    -0.03090
C364        C  0.96685846  0.09068304  0.09690588     0.09130
C365        C  0.98504743  0.13729629  0.09711478     0.02920
H366        H  0.91790178  0.05763565  0.08044886     0.10570
H367        H  0.00660304  0.15393569  0.10571996     0.09650
N368        N  0.87713503  0.18044384  0.03879220    -0.34180
N369        N  0.87710890  0.22687774  0.03550592    -0.26360
C370        C  0.85839788  0.23260095  0.02179503    -0.01600
C371        C  0.84604441  0.18766222  0.01634742     0.07010
C372        C  0.85844181  0.15546540  0.02731966     0.05100
H373        H  0.85542167  0.26669741  0.01607566     0.10210
H374        H  0.85558971  0.11664186  0.02682868     0.09040
N375        N  0.05131837  0.67800586  0.06496682    -0.25350
N376        N  0.03168201  0.70073433  0.07643202    -0.33210
C377        C  0.00782328  0.66941590  0.08505832     0.02990
C378        C  0.01282334  0.62436448  0.07894868     0.09020
C379        C  0.04102417  0.63051059  0.06622052    -0.04080
H380        H  0.98877151  0.67877387  0.09522067     0.09680
H381        H  0.05219328  0.60301339  0.05837470     0.10880
Cu382      Cu  0.03741395  0.77281480  0.08050342     0.44170
Cu383      Cu  0.08726461  0.71706239  0.04834317     0.41990
Cu384      Cu  0.09631359  0.85116512  0.05610064     0.43880
N385        N  0.04332135  0.84473641  0.08483941    -0.32730
N386        N  0.06641458  0.87522521  0.07607385    -0.26990
C387        C  0.06540187  0.91926843  0.08247116    -0.03090
C388        C  0.03964710  0.91579108  0.09575748     0.09130
C389        C  0.02656812  0.86788299  0.09688814     0.02920
H390        H  0.08227409  0.95117324  0.07787930     0.10570
H391        H  0.00783472  0.85043685  0.10603092     0.09650
N392        N  0.11728362  0.81630678  0.03652543    -0.34180
N393        N  0.11419159  0.76944025  0.03369293    -0.26360
C394        C  0.12923153  0.76140984  0.01956450    -0.01600
C395        C  0.14233153  0.80501849  0.01335237     0.07010
C396        C  0.13432072  0.83894125  0.02431785     0.05100
H397        H  0.12958380  0.72656231  0.01414606     0.10210
H398        H  0.13944422  0.87747153  0.02341476     0.09040
C399        C  0.99742221  0.47772560  0.10759828     0.02510
C400        C  0.00536809  0.52571405  0.10625696     0.02500
C401        C  0.99203622  0.58101414  0.08577800    -0.14490
C402        C  0.02024536  0.54766766  0.09184595    -0.29670
H403        H  0.95567076  0.58452518  0.09010811     0.14530
H404        H  0.05788665  0.54554642  0.08862770     0.15110
C405        C  0.96768090  0.43149417  0.08610264    -0.14490
C406        C  0.00479913  0.44490627  0.09465545    -0.29670
H407        H  0.93471113  0.45220541  0.08633507     0.14530
H408        H  0.03776153  0.42422563  0.09434330     0.15110
C409        C  0.81678493  0.16289802  0.98939124    -0.11330
C410        C  0.82889529  0.17572022  0.00168776    -0.12890
C411        C  0.55137439  0.04272958  0.89081422    -0.14490
C412        C  0.56340417  0.02308442  0.90394137    -0.29670
H413        H  0.57456291  0.07116709  0.88645582     0.14530
H414        H  0.54257840  0.99399038  0.90885911     0.15110
C415        C  0.15795302  0.81428452  0.99828082    -0.11330
C416        C  0.17011137  0.82504460  0.98576021    -0.12890
C417        C  0.43609791  0.97087293  0.90532831    -0.14490
C418        C  0.45120680  0.01068718  0.89815407    -0.29670
H419        H  0.45131076  0.93615311  0.90236066     0.14530
H420        H  0.43604098  0.04537373  0.90110926     0.15110
C421        C  0.53812031  0.48862324  0.33927079    -0.14490
C422        C  0.54956748  0.44819055  0.33119883    -0.29670
H423        H  0.52793790  0.45065597  0.34005446     0.14530
H424        H  0.53556156  0.44711048  0.31927370     0.15110
C425        C  0.43679131  0.53876837  0.33559214    -0.14490
C426        C  0.44253746  0.50643739  0.34657654    -0.29670
H427        H  0.46322425  0.56724881  0.33396579     0.14530
H428        H  0.41596414  0.47847927  0.34851881     0.15110
C429        C  0.99716243  0.94787532  0.11759589    -0.14490
C430        C  0.03201828  0.95322248  0.10723878    -0.29670
H431        H  0.97282798  0.91728894  0.11681819     0.14530
H432        H  0.05740053  0.98294895  0.10788684     0.15110
C433        C  0.00235950  0.05620788  0.11972066    -0.14490
C434        C  0.97067949  0.05309288  0.10848890    -0.29670
H435        H  0.02611358  0.08726449  0.12033871     0.14530
H436        H  0.94528606  0.02331746  0.10808752     0.15110
C437        C  0.16623435  0.68194739  0.23889891    -0.11330
C438        C  0.17784153  0.67058509  0.25134612    -0.12890
C439        C  0.00214561  0.55985569  0.11908576    -0.14490
C440        C  0.02722161  0.55367304  0.13170180    -0.29670
H441        H  0.98431396  0.59384729  0.11715716     0.14530
H442        H  0.04731505  0.52072813  0.13330130     0.15110
C443        C  0.99153028  0.94326008  0.14508603    -0.14490
C444        C  0.02911031  0.93432772  0.15395679    -0.29670
H445        H  0.96171268  0.91786928  0.14496336     0.14530
H446        H  0.05986761  0.95858477  0.15404867     0.15110
C447        C  0.84492854  0.32894807  0.23900297    -0.11330
C448        C  0.83443127  0.34064710  0.25160371    -0.12890
C449        C  0.98826809  0.40919716  0.12480800    -0.14490
C450        C  0.97980422  0.45571354  0.12190788    -0.29670
H451        H  0.00941413  0.38823053  0.11696162     0.14530
H452        H  0.95995877  0.47729744  0.12995016     0.15110
C453        C  0.00423147  0.04893108  0.14735462    -0.14490
C454        C  0.96499905  0.05587577  0.15592653    -0.29670
H455        H  0.03436320  0.07370761  0.14846692     0.14530
H456        H  0.93391932  0.03231557  0.15489778     0.15110
C457        C  0.50326049  0.94581078  0.59453143    -0.14490
C458        C  0.46702794  0.93313077  0.58548450    -0.29670
H459        H  0.53589291  0.92463638  0.59452678     0.14530
H460        H  0.43406463  0.95388091  0.58562241     0.15110
C461        C  0.51862996  0.04996377  0.59374105    -0.14490
C462        C  0.50365463  0.09469475  0.59078071    -0.29670
H463        H  0.55020201  0.03570833  0.58810479     0.14530
H464        H  0.47265368  0.10855072  0.59678596     0.15110
C465        C  0.95400690  0.47403559  0.36873922    -0.14490
C466        C  0.90722261  0.48156855  0.36655012    -0.29670
H467        H  0.97510206  0.45492439  0.36039842     0.14530
H468        H  0.88728733  0.50296539  0.37459210     0.15110
C469        C  0.04215371  0.52538219  0.36451704    -0.14490
C470        C  0.08872255  0.51533187  0.36258414    -0.29670
H471        H  0.02026246  0.53593848  0.35510023     0.14530
H472        H  0.10906602  0.50159816  0.37194809     0.15110
C473        C  0.32808716  0.67551902  0.50116806    -0.11330
C474        C  0.31741481  0.65930263  0.48913709    -0.12890
C475        C  0.42069785  0.55347006  0.37425029    -0.14490
C476        C  0.46170539  0.52799906  0.37339638    -0.29670
H477        H  0.40418494  0.56608679  0.36405725     0.14530
H478        H  0.47874483  0.51636133  0.38358666     0.15110
C479        C  0.04609182  0.54761238  0.39163429    -0.14490
C480        C  0.05984347  0.52710012  0.40446882    -0.29670
H481        H  0.06473772  0.58017988  0.38807535     0.14530
H482        H  0.04318325  0.49409398  0.40847192     0.15110
C483        C  0.67358174  0.32820588  0.48720522    -0.11330
C484        C  0.66049972  0.31709496  0.49959063    -0.12890
C485        C  0.56389256  0.49523990  0.36669568    -0.14490
C486        C  0.55901627  0.46751308  0.37891737    -0.29670
H487        H  0.59745162  0.51399758  0.36451171     0.14530
H488        H  0.52608723  0.44691656  0.38052175     0.15110
C489        C  0.95067576  0.50068774  0.39601732    -0.14490
C490        C  0.93109876  0.46114051  0.40219230    -0.29670
H491        H  0.93947343  0.53612780  0.39976328     0.14530
H492        H  0.94344862  0.42572217  0.39876398     0.15110
C493        C  0.54602207  0.45856159  0.62224462    -0.14490
C494        C  0.53424084  0.45419234  0.60776632    -0.29670
H495        H  0.57567182  0.43713684  0.62632216     0.14530
H496        H  0.50379958  0.47295696  0.60317310     0.15110
C497        C  0.49639288  0.55261035  0.61802534    -0.14490
C498        C  0.45978777  0.56002779  0.60867027    -0.29670
H499        H  0.53110995  0.56957845  0.61609134     0.14530
H500        H  0.42652710  0.53990014  0.61021912     0.15110
C501        C  0.53095728  0.05630989  0.63109608    -0.14490
C502        C  0.49575545  0.05554808  0.62095451    -0.29670
H503        H  0.55924911  0.02958006  0.63046500     0.14530
H504        H  0.46749041  0.08221171  0.62144428     0.15110
C505        C  0.50343582  0.44964184  0.64669634    -0.14490
C506        C  0.53903008  0.43340712  0.65529431    -0.29670
H507        H  0.46786275  0.43355199  0.64749659     0.14530
H508        H  0.57409497  0.45078641  0.65488435     0.15110
C509        C  0.47260730  0.90372967  0.62269203    -0.14490
C510        C  0.47695982  0.95188536  0.62193013    -0.29670
H511        H  0.48219407  0.88159550  0.61318530     0.14530
H512        H  0.46644091  0.97318937  0.63157733     0.15110
C513        C  0.46786191  0.55815934  0.65591754    -0.14490
C514        C  0.45417730  0.54187056  0.64244047    -0.29670
H515        H  0.50112466  0.54606815  0.66088602     0.14530
H516        H  0.42105813  0.55571969  0.63781460     0.15110
C517        C  0.93575322  0.00720619  0.86800946    -0.14490
C518        C  0.94425390  0.03596402  0.87982247    -0.29670
H519        H  0.89929862  0.99485131  0.86603998     0.14530
H520        H  0.97999322  0.05013692  0.88186291     0.15110
C521        C  0.03584480  0.97662615  0.87500924    -0.14490
C522        C  0.08060798  0.99306096  0.87749010    -0.29670
H523        H  0.01470078  0.96055276  0.88394806     0.14530
H524        H  0.09974230  0.01107781  0.86845433     0.15110
C525        C  0.33762410  0.83158848  0.73773116    -0.11330
C526        C  0.32275933  0.84579121  0.74960770    -0.12890
C527        C  0.44416194  0.96395477  0.85960612    -0.14490
C528        C  0.43626977  0.99253877  0.87150110    -0.29670
H529        H  0.47954381  0.94933801  0.85740303     0.14530
H530        H  0.40009762  0.00534564  0.87360161     0.15110
C531        C  0.04972676  0.95586200  0.84823432    -0.14490
C532        C  0.06332749  0.97692994  0.83539741    -0.29670
H533        H  0.07177098  0.92657445  0.85233325     0.14530
H534        H  0.04366661  0.00699033  0.83081403     0.15110
C535        C  0.67504823  0.16442864  0.75188048    -0.11330
C536        C  0.66364705  0.17606962  0.73944149    -0.12890
C537        C  0.53716978  0.02137688  0.86415988    -0.14490
C538        C  0.58132779  0.00389682  0.86150896    -0.29670
H539        H  0.51645717  0.03746251  0.85526548     0.14530
H540        H  0.60004258  0.98599466  0.87052100     0.15110
C541        C  0.95031543  0.98783321  0.84131911    -0.14490
C542        C  0.93474604  0.02713577  0.83412997    -0.29670
H543        H  0.93652796  0.95254203  0.83825178     0.14530
H544        H  0.94884071  0.06237699  0.83717020     0.15110
loop_ 
_geom_bond_atom_site_label_1 
_geom_bond_atom_site_label_2 
_geom_bond_distance 
_geom_bond_site_symmetry_2 
_ccdc_geom_bond_type 
N1            N2   1.321       .  A
N1            C5   1.349       .  A
N1           Cu9   2.083       .  S
N2            C3   1.343   1_545  A
N2           Cu8   2.067       .  S
C3            C4   1.384   1_565  A
C3            H6   1.081       .  S
C4            C5   1.387       .  A
C4          C542   1.476       .  S
C5            H7   1.082       .  S
Cu8          N11   2.068       .  S
Cu9          N19   2.084       .  S
Cu10         N12   2.076       .  S
Cu10         N18   2.077       .  S
N11          N12   1.321       .  A
N11          C15   1.341   1_545  A
N12          C13   1.349       .  A
C13          C14   1.387       .  A
C13          H16   1.082       .  S
C14          C15   1.379   1_545  A
C14         C538   1.473       .  S
C15          H17   1.081       .  S
N18          N19   1.325       .  A
N18          C22   1.345       .  A
N19          C20   1.346       .  A
C20          C21   1.380       .  A
C20          H23   1.082       .  S
C21          C22   1.378       .  A
C21         C535   1.437       .  S
C22          H24   1.082       .  S
N25          N26   1.322       .  A
N25          C29   1.352       .  A
N25         Cu33   2.085       .  S
N26          C27   1.339       .  A
N26         Cu32   2.068       .  S
C27          C28   1.381       .  A
C27          H30   1.082       .  S
C28          C29   1.386       .  A
C28         C532   1.478       .  S
C29          H31   1.081       .  S
Cu32         N35   2.068       .  S
Cu33         N43   2.087       .  S
Cu34         N36   2.066       .  S
Cu34         N42   2.068       .  S
N35          N36   1.319       .  A
N35          C39   1.342       .  A
N36          C37   1.347       .  A
C37          C38   1.384       .  A
C37          H40   1.082       .  S
C38          C39   1.388       .  A
C38         C527   1.480       .  S
C39          H41   1.081       .  S
N42          N43   1.326       .  A
N42          C46   1.342       .  A
N43          C44   1.348       .  A
C44          C45   1.381       .  A
C44          H47   1.082       .  S
C45          C46   1.375       .  A
C45         C526   1.434       .  S
C46          H48   1.082       .  S
C49          C50   1.362   1_655  D
C49         C517   1.491   1_565  S
C49         C541   1.481       .  S
C50         C521   1.490       .  S
C50         C531   1.490       .  S
N51          N52   1.319       .  A
N51          C55   1.352       .  A
N51         Cu59   2.083       .  S
N52          C53   1.336       .  A
N52         Cu58   2.046       .  S
C53          C54   1.381       .  A
C53          H56   1.082       .  S
C54          C55   1.390       .  A
C54         C513   1.477       .  S
C55          H57   1.082       .  S
Cu58         N61   2.048       .  S
Cu59         N69   2.087       .  S
Cu60         N62   2.074       .  S
Cu60         N68   2.078       .  S
N61          N62   1.319       .  A
N61          C65   1.337       .  A
N62          C63   1.350       .  A
C63          C64   1.389       .  A
C63          H66   1.082       .  S
C64          C65   1.376       .  A
C64         C509   1.469       .  S
C65          H67   1.082       .  S
N68          N69   1.327       .  A
N68          C72   1.344       .  A
N69          C70   1.346       .  A
C70          C71   1.379       .  A
C70          H73   1.082       .  S
C71          C72   1.376       .  A
C71         C525   1.435       .  S
C72          H74   1.082       .  S
N75          N76   1.323       .  A
N75          C79   1.346       .  A
N75         Cu83   2.072       .  S
N76          C77   1.344       .  A
N76         Cu82   2.080       .  S
C77          C78   1.385       .  A
C77          H80   1.082       .  S
C78          C79   1.381       .  A
C78         C506   1.471       .  S
C79          H81   1.082       .  S
Cu82         N85   2.081       .  S
Cu83         N93   2.072       .  S
Cu84         N86   2.069       .  S
Cu84         N92   2.069       .  S
N85          N86   1.322       .  A
N85          C89   1.347       .  A
N86          C87   1.344       .  A
C87          C88   1.380       .  A
C87          H90   1.081       .  S
C88          C89   1.387       .  A
C88         C501   1.475       .  S
C89          H91   1.082       .  S
N92          N93   1.322       .  A
N92          C96   1.345       .  A
N93          C94   1.346       .  A
C94          C95   1.380       .  A
C94          H97   1.081       .  S
C95          C96   1.379       .  A
C95         C536   1.437       .  S
C96          H98   1.082       .  S
C99         C100   1.358       .  D
C99         C497   1.484       .  S
C99         C514   1.483       .  S
C100        C493   1.493       .  S
C100        C505   1.480       .  S
N101        N102   1.322       .  A
N101        C105   1.347       .  A
N101       Cu109   2.077       .  S
N102        C103   1.343       .  A
N102       Cu108   2.077       .  S
C103        C104   1.384       .  A
C103        H106   1.080       .  S
C104        C105   1.384       .  A
C104        C490   1.472       .  S
C105        H107   1.082       .  S
Cu108       N111   2.078       .  S
Cu109       N119   2.077       .  S
Cu110       N112   2.075       .  S
Cu110       N118   2.074       .  S
N111        N112   1.321       .  A
N111        C115   1.348       .  A
N112        C113   1.345       .  A
C113        C114   1.384       .  A
C113        H116   1.082       .  S
C114        C115   1.388       .  A
C114        C486   1.481       .  S
C115        H117   1.081       .  S
N118        N119   1.324       .  A
N118        C122   1.344       .  A
N119        C120   1.347       .  A
C120        C121   1.380       .  A
C120        H123   1.082       .  S
C121        C122   1.378       .  A
C121        C483   1.436       .  S
C122        H124   1.082       .  S
N125        N126   1.319       .  A
N125        C129   1.352       .  A
N125       Cu133   2.078       .  S
N126        C127   1.336       .  A
N126       Cu132   2.051       .  S
C127        C128   1.380       .  A
C127        H130   1.081       .  S
C128        C129   1.388       .  A
C128        C480   1.476       .  S
C129        H131   1.082       .  S
Cu132       N135   2.052       .  S
Cu133       N143   2.083       .  S
Cu134       N136   2.080       .  S
Cu134       N142   2.085       .  S
N135        N136   1.319       .  A
N135        C139   1.336       .  A
N136        C137   1.354       .  A
C137        C138   1.389       .  A
C137        H140   1.081       .  S
C138        C139   1.376       .  A
C138        C475   1.470       .  S
C139        H141   1.082       .  S
N142        N143   1.328       .  A
N142        C146   1.345       .  A
N143        C144   1.346       .  A
C144        C145   1.377       .  A
C144        H147   1.082       .  S
C145        C146   1.377       .  A
C145        C474   1.435       .  S
C146        H148   1.082       .  S
C149        C150   1.354   1_655  D
C149        C465   1.493       .  S
C149        C489   1.488       .  S
C150        C469   1.488       .  S
C150        C479   1.485       .  S
N151        N152   1.323       .  A
N151        C155   1.351       .  A
N151       Cu159   2.079       .  S
N152        C153   1.338       .  A
N152       Cu158   2.061       .  S
C153        C154   1.375       .  A
C153        H156   1.082       .  S
C154        C155   1.385       .  A
C154        C462   1.464       .  S
C155        H157   1.082       .  S
Cu158       N161   2.060       .  S
Cu159       N169   2.081       .  S
Cu160       N162   2.068       .  S
Cu160       N168   2.071       .  S
N161        N162   1.319       .  A
N161        C165   1.342       .  A
N162        C163   1.346       .  A
C163        C164   1.383       .  A
C163        H166   1.081       .  S
C164        C165   1.383       .  A
C164        C494   1.471       .  S
C165        H167   1.082       .  S
N168        N169   1.325       .  A
N168        C172   1.343       .  A
N169        C170   1.347       .  A
C170        C171   1.380       .  A
C170        H173   1.081       .  S
C171        C172   1.376       .  A
C171        C484   1.436       .  S
C172        H174   1.082       .  S
N175        N176   1.323       .  A
N175        C179   1.348       .  A
N175       Cu183   2.082       .  S
N176        C177   1.344       .  A
N176       Cu182   2.083       .  S
C177        C178   1.386       .  A
C177        H180   1.081       .  S
C178        C179   1.384       .  A
C178        C458   1.480       .  S
C179        H181   1.082       .  S
Cu182       N185   2.082       .  S
Cu183       N193   2.081       .  S
Cu184       N186   2.060       .  S
Cu184       N192   2.059       .  S
N185        N186   1.321       .  A
N185        C189   1.348       .  A
N186        C187   1.342       .  A
C187        C188   1.379       .  A
C187        H190   1.082       .  S
C188        C189   1.387       .  A
C188        C498   1.470       .  S
C189        H191   1.081       .  S
N192        N193   1.322       .  A
N192        C196   1.342       .  A
N193        C194   1.348       .  A
C194        C195   1.383       .  A
C194        H197   1.082       .  S
C195        C196   1.376       .  A
C195        C473   1.435       .  S
C196        H198   1.082       .  S
C199        C200   1.358   1_565  D
C199        C457   1.488       .  S
C199        C510   1.504       .  S
C200        C461   1.490       .  S
C200        C502   1.489       .  S
N201        N202   1.317       .  A
N201        C205   1.353       .  A
N201       Cu209   2.086       .  S
N202        C203   1.333       .  A
N202       Cu208   2.030       .  S
C203        C204   1.379       .  A
C203        H206   1.082       .  S
C204        C205   1.392       .  A
C204        C454   1.476       .  S
C205        H207   1.082       .  S
Cu208       N211   2.030       .  S
Cu209       N219   2.093       .  S
Cu210       N212   2.091       .  S
Cu210       N218   2.096       .  S
N211        N212   1.318       .  A
N211        C215   1.334       .  A
N212        C213   1.354       .  A
C213        C214   1.394       .  A
C213        H216   1.082       .  S
C214        C215   1.372       .  A
C214        C449   1.470       .  S
C215        H217   1.082       .  S
N218        N219   1.330       .  A
N218        C222   1.347       .  A
N219        C220   1.347       .  A
C220        C221   1.378       .  A
C220        H223   1.082       .  S
C221        C222   1.379       .  A
C221        C447   1.440       .  S
C222        H224   1.082       .  S
N225        N226   1.322       .  A
N225        C229   1.350       .  A
N225       Cu233   2.082       .  S
N226        C227   1.341       .  A
N226       Cu232   2.069       .  S
C227        C228   1.384       .  A
C227        H230   1.081   1_455  S
C228        C229   1.385       .  A
C228        C444   1.478       .  S
C229        H231   1.082       .  S
Cu232       N235   2.070       .  S
Cu233       N243   2.083       .  S
Cu234       N236   2.072       .  S
Cu234       N242   2.073       .  S
N235        N236   1.320       .  A
N235        C239   1.344       .  A
N236        C237   1.346       .  A
C237        C238   1.384       .  A
C237        H240   1.081       .  S
C238        C239   1.387       .  A
C238        C440   1.479       .  S
C239        H241   1.081   1_455  S
N242        N243   1.325       .  A
N242        C246   1.344       .  A
N243        C244   1.347       .  A
C244        C245   1.381       .  A
C244        H247   1.081       .  S
C245        C246   1.378       .  A
C245        C437   1.437       .  S
C246        H248   1.082       .  S
C249        C250   1.358   1_665  D
C249        C429   1.482       .  S
C249        C443   1.480       .  S
C250        C433   1.490       .  S
C250        C453   1.476       .  S
N251        N252   1.319       .  A
N251        C255   1.350       .  A
N251       Cu259   2.080       .  S
N252        C253   1.336       .  A
N252       Cu258   2.041       .  S
C253        C254   1.382       .  A
C253        H256   1.080       .  S
C254        C255   1.389       .  A
C254        C425   1.477       .  S
C255        H257   1.082       .  S
Cu258       N261   2.042       .  S
Cu259       N269   2.084       .  S
Cu260       N262   2.082       .  S
Cu260       N268   2.085       .  S
N261        N262   1.319       .  A
N261        C265   1.338       .  A
N262        C263   1.349       .  A
C263        C264   1.390       .  A
C263        H266   1.082       .  S
C264        C265   1.375       .  A
C264        C470   1.469       .  S
C265        H267   1.082       .  S
N268        N269   1.327       .  A
N268        C272   1.346       .  A
N269        C270   1.346       .  A
C270        C271   1.379       .  A
C270        H273   1.082       .  S
C271        C272   1.378       .  A
C271        C438   1.437       .  S
C272        H274   1.082       .  S
N275        N276   1.317       .  A
N275        C279   1.345       .  A
N275       Cu283   2.081       .  S
N276        C277   1.340       .  A
N276       Cu282   2.028       .  S
C277        C278   1.378       .  A
C277        H280   1.080       .  S
C278        C279   1.392       .  A
C278        C422   1.499       .  S
C279        H281   1.081       .  S
Cu282       N285   2.027       .  S
Cu283       N293   2.083       .  S
Cu284       N286   2.090       .  S
Cu284       N292   2.093       .  S
N285        N286   1.320       .  A
N285        C289   1.333       .  A
N286        C287   1.352       .  A
C287        C288   1.392       .  A
C287        H290   1.082       .  S
C288        C289   1.369       .  A
C288        C466   1.465       .  S
C289        H291   1.082       .  S
N292        N293   1.327       .  A
N292        C296   1.348       .  A
N293        C294   1.345       .  A
C294        C295   1.378       .  A
C294        H297   1.082       .  S
C295        C296   1.381       .  A
C295        C448   1.440       .  S
C296        H298   1.082       .  S
C299        C300   1.365       .  D
C299        C421   1.488       .  S
C299        C485   1.489       .  S
C300        C426   1.488       .  S
C300        C476   1.505       .  S
N301        N302   1.321       .  A
N301        C305   1.349       .  A
N301       Cu309   2.082       .  S
N302        C303   1.342       .  A
N302       Cu308   2.067       .  S
C303        C304   1.384       .  A
C303        H306   1.081   1_565  S
C304        C305   1.387       .  A
C304        C417   1.475       .  S
C305        H307   1.082       .  S
Cu308       N311   2.068       .  S
Cu309       N319   2.084       .  S
Cu310       N312   2.078       .  S
Cu310       N318   2.080       .  S
N311        N312   1.321       .  A
N311        C315   1.341   1_565  A
N312        C313   1.350       .  A
C313        C314   1.388       .  A
C313        H316   1.082       .  S
C314        C315   1.380   1_565  A
C314        C522   1.474       .  S
C315        H317   1.082       .  S
N318        N319   1.326       .  A
N318        C322   1.345       .  A
N319        C320   1.347       .  A
C320        C321   1.380       .  A
C320        H323   1.082       .  S
C321        C322   1.379       .  A
C321        C416   1.438       .  S
C322        H324   1.082       .  S
N325        N326   1.322       .  A
N325        C329   1.352       .  A
N325       Cu333   2.086       .  S
N326        C327   1.339       .  A
N326       Cu332   2.064       .  S
C327        C328   1.381       .  A
C327        H330   1.082       .  S
C328        C329   1.387       .  A
C328        C412   1.478       .  S
C329        H331   1.081       .  S
Cu332       N335   2.064       .  S
Cu333       N343   2.088       .  S
Cu334       N336   2.073       .  S
Cu334       N342   2.076       .  S
N335        N336   1.319       .  A
N335        C339   1.341       .  A
N336        C337   1.348       .  A
C337        C338   1.386       .  A
C337        H340   1.082       .  S
C338        C339   1.387       .  A
C338        C518   1.482       .  S
C339        H341   1.081       .  S
N342        N343   1.326       .  A
N342        C346   1.344       .  A
N343        C344   1.347       .  A
C344        C345   1.380       .  A
C344        H347   1.082       .  S
C345        C346   1.377       .  A
C345        C409   1.437       .  S
C346        H348   1.082       .  S
C349        C350   1.362       .  D
C349        C411   1.491       .  S
C349        C537   1.489       .  S
C350        C418   1.479       .  S
C350        C528   1.492   1_545  S
N351        N352   1.323       .  A
N351        C355   1.348       .  A
N351       Cu359   2.079       .  S
N352        C353   1.343       .  A
N352       Cu358   2.076       .  S
C353        C354   1.385       .  A
C353        H356   1.081   1_655  S
C354        C355   1.384       .  A
C354        C405   1.476       .  S
C355        H357   1.082       .  S
Cu358       N361   2.076       .  S
Cu359       N369   2.080       .  S
Cu360       N362   2.071       .  S
Cu360       N368   2.071       .  S
N361        N362   1.321       .  A
N361        C365   1.345       .  A
N362        C363   1.345       .  A
C363        C364   1.383       .  A
C363        H366   1.082       .  S
C364        C365   1.387       .  A
C364        C434   1.479       .  S
C365        H367   1.081   1_655  S
N368        N369   1.324       .  A
N368        C372   1.344       .  A
N369        C370   1.347       .  A
C370        C371   1.381       .  A
C370        H373   1.082       .  S
C371        C372   1.378       .  A
C371        C410   1.437       .  S
C372        H374   1.082       .  S
N375        N376   1.320       .  A
N375        C379   1.353       .  A
N375       Cu383   2.090       .  S
N376        C377   1.336       .  A
N376       Cu382   2.039       .  S
C377        C378   1.372       .  A
C377        H380   1.082   1_455  S
C378        C379   1.390       .  A
C378        C401   1.466   1_455  S
C379        H381   1.082       .  S
Cu382       N385   2.040       .  S
Cu383       N393   2.094       .  S
Cu384       N386   2.077       .  S
Cu384       N392   2.081       .  S
N385        N386   1.318       .  A
N385        C389   1.337       .  A
N386        C387   1.350       .  A
C387        C388   1.388       .  A
C387        H390   1.081       .  S
C388        C389   1.381       .  A
C388        C430   1.475       .  S
C389        H391   1.082       .  S
N392        N393   1.328       .  A
N392        C396   1.345       .  A
N393        C394   1.348       .  A
C394        C395   1.380       .  A
C394        H397   1.081       .  S
C395        C396   1.377       .  A
C395        C415   1.438   1_554  S
C396        H398   1.082       .  S
C399        C400   1.355   1_655  D
C399        C406   1.486   1_655  S
C399        C450   1.499       .  S
C400        C402   1.484       .  S
C400        C439   1.490       .  S
C401        C402   1.337   1_655  D
C401        H403   1.087       .  S
C402        H404   1.087       .  S
C405        C406   1.341   1_655  D
C405        H407   1.086       .  S
C406        H408   1.086       .  S
C409        C410   1.206   1_556  T
C411        C412   1.343       .  D
C411        H413   1.089       .  S
C412        H414   1.084   1_545  S
C415        C416   1.207       .  T
C417        C418   1.344   1_565  D
C417        H419   1.087       .  S
C418        H420   1.086       .  S
C421        C422   1.372       .  D
C421        H423   1.093       .  S
C422        H424   1.140       .  S
C425        C426   1.345       .  D
C425        H427   1.087       .  S
C426        H428   1.083       .  S
C429        C430   1.345   1_655  D
C429        H431   1.086       .  S
C430        H432   1.085       .  S
C433        C434   1.345   1_455  D
C433        H435   1.085       .  S
C434        H436   1.085       .  S
C437        C438   1.206       .  T
C439        C440   1.344       .  D
C439        H441   1.084   1_455  S
C440        H442   1.086       .  S
C443        C444   1.343   1_655  D
C443        H445   1.086       .  S
C444        H446   1.087       .  S
C447        C448   1.207       .  T
C449        C450   1.341       .  D
C449        H451   1.084   1_655  S
C450        H452   1.086       .  S
C453        C454   1.345   1_455  D
C453        H455   1.087       .  S
C454        H456   1.086       .  S
C457        C458   1.343       .  D
C457        H459   1.085       .  S
C458        H460   1.087       .  S
C461        C462   1.341       .  D
C461        H463   1.087       .  S
C462        H464   1.086       .  S
C465        C466   1.337       .  D
C465        H467   1.086       .  S
C466        H468   1.084       .  S
C469        C470   1.338       .  D
C469        H471   1.086       .  S
C470        H472   1.087       .  S
C473        C474   1.205       .  T
C475        C476   1.349       .  D
C475        H477   1.085       .  S
C476        H478   1.083       .  S
C479        C480   1.343       .  D
C479        H481   1.088       .  S
C480        H482   1.086       .  S
C483        C484   1.205       .  T
C485        C486   1.346       .  D
C485        H487   1.084       .  S
C486        H488   1.087       .  S
C489        C490   1.342       .  D
C489        H491   1.086       .  S
C490        H492   1.087       .  S
C493        C494   1.344       .  D
C493        H495   1.087       .  S
C494        H496   1.082       .  S
C497        C498   1.341       .  D
C497        H499   1.086       .  S
C498        H500   1.087       .  S
C501        C502   1.341       .  D
C501        H503   1.087       .  S
C502        H504   1.085       .  S
C505        C506   1.340       .  D
C505        H507   1.086       .  S
C506        H508   1.087       .  S
C509        C510   1.344       .  D
C509        H511   1.081       .  S
C510        H512   1.085       .  S
C513        C514   1.344       .  D
C513        H515   1.086       .  S
C514        H516   1.087       .  S
C517        C518   1.345       .  D
C517        H519   1.085   1_545  S
C518        H520   1.085       .  S
C521        C522   1.345       .  D
C521        H523   1.086       .  S
C522        H524   1.087   1_565  S
C525        C526   1.204       .  T
C527        C528   1.344       .  D
C527        H529   1.084       .  S
C528        H530   1.085   1_565  S
C531        C532   1.342       .  D
C531        H533   1.088       .  S
C532        H534   1.085   1_565  S
C535        C536   1.206       .  T
C537        C538   1.344       .  D
C537        H539   1.086       .  S
C538        H540   1.087   1_545  S
C541        C542   1.345   1_565  D
C541        H543   1.086       .  S
C542        H544   1.087       .  S
